
     RDKit          3D

 42 43  0  0  0  0  0  0  0  0999 V2000
    0.3820   -0.5388   -2.2195 C   0  0  0  0  0  0  0  0  0  0  0  0
    2.9644    0.8923    0.8839 C   0  0  0  0  0  0  0  0  0  0  0  0
    1.7478    2.6485    0.6867 H   0  0  0  0  0  0  0  0  0  0  0  0
    0.0561    0.5452    2.9171 O   0  0  0  0  0  0  0  0  0  0  0  0
   -0.4484    2.3364    0.0946 H   0  0  0  0  0  0  0  0  0  0  0  0
    1.3701    0.1366   -1.6108 C   0  0  0  0  0  0  0  0  0  0  0  0
   -0.9233   -0.1977   -1.9842 C   0  0  0  0  0  0  0  0  0  0  0  0
   -2.7733   -1.9911    0.1297 C   0  0  0  0  0  0  0  0  0  0  0  0
    2.6033    3.3264   -1.5633 H   0  0  0  0  0  0  0  0  0  0  0  0
   -1.2378   -2.3956   -3.6996 H   0  0  0  0  0  0  0  0  0  0  0  0
    2.2152    1.8740    0.0241 C   0  0  0  0  0  0  0  0  0  0  0  0
    2.3091    0.3151    1.5089 H   0  0  0  0  0  0  0  0  0  0  0  0
    3.5518    0.1807    0.3112 H   0  0  0  0  0  0  0  0  0  0  0  0
   -0.4155   -3.4335   -1.7649 H   0  0  0  0  0  0  0  0  0  0  0  0
   -2.2605    1.1760   -0.9992 H   0  0  0  0  0  0  0  0  0  0  0  0
    3.8622    3.1636   -0.3319 H   0  0  0  0  0  0  0  0  0  0  0  0
    0.3443    1.5942    3.8681 C   0  0  0  0  0  0  0  0  0  0  0  0
   -3.6977   -2.3078   -0.3462 H   0  0  0  0  0  0  0  0  0  0  0  0
   -0.1970    2.4667    3.6528 H   0  0  0  0  0  0  0  0  0  0  0  0
   -1.4947   -3.1357   -1.7003 C   0  0  0  0  0  0  0  0  0  0  0  0
    3.1225    2.5940   -0.9005 C   0  0  0  0  0  0  0  0  0  0  0  0
   -0.2085    1.5415   -0.5435 C   0  0  0  0  0  0  0  0  0  0  0  0
   -1.5804   -2.4498   -0.4147 C   0  0  0  0  0  0  0  0  0  0  0  0
   -1.9086   -2.2313   -2.8566 C   0  0  0  0  0  0  0  0  0  0  0  0
    0.6110   -1.3801   -2.9200 H   0  0  0  0  0  0  0  0  0  0  0  0
   -1.2336    0.1378    2.8010 C   0  0  0  0  0  0  0  0  0  0  0  0
    1.3656    1.7877    3.8343 H   0  0  0  0  0  0  0  0  0  0  0  0
   -0.3610   -1.3845    1.1617 N   0  0  0  0  0  0  0  0  0  0  0  0
   -2.7381   -1.1952    1.2384 C   0  0  0  0  0  0  0  0  0  0  0  0
   -2.1598    0.5558    3.4552 O   0  0  0  0  0  0  0  0  0  0  0  0
    0.0404    1.2396    4.8073 H   0  0  0  0  0  0  0  0  0  0  0  0
   -3.6104   -0.7955    1.7155 H   0  0  0  0  0  0  0  0  0  0  0  0
    3.6650    1.4124    1.5776 H   0  0  0  0  0  0  0  0  0  0  0  0
    3.6667    1.9268   -1.5855 H   0  0  0  0  0  0  0  0  0  0  0  0
   -1.3874   -0.8500    1.7120 C   0  0  0  0  0  0  0  0  0  0  0  0
   -2.1296   -4.0358   -1.6413 H   0  0  0  0  0  0  0  0  0  0  0  0
   -2.0248   -0.8400   -2.5662 O   0  0  0  0  0  0  0  0  0  0  0  0
   -2.9322   -2.4849   -3.2092 H   0  0  0  0  0  0  0  0  0  0  0  0
   -1.2277    0.8751   -1.1582 C   0  0  0  0  0  0  0  0  0  0  0  0
    2.3905   -0.1557   -1.8033 H   0  0  0  0  0  0  0  0  0  0  0  0
    1.1195    1.2035   -0.7493 C   0  0  0  0  0  0  0  0  0  0  0  0
   -0.4375   -2.1270    0.1882 N   0  0  0  0  0  0  0  0  0  0  0  0
  6  1  2  0
  7  1  1  0
 11  2  1  0
 11  3  1  0
 12  2  1  0
 13  2  1  0
 17  4  1  0
 18  8  1  0
 19 17  1  0
 20 14  1  0
 21  9  1  0
 21 11  1  0
 21 16  1  0
 22  5  1  0
 23  8  2  0
 23 20  1  0
 24 10  1  0
 24 20  1  0
 25  1  1  0
 26  4  1  0
 27 17  1  0
 29  8  1  0
 30 26  2  0
 31 17  1  0
 32 29  1  0
 33  2  1  0
 34 21  1  0
 35 26  1  0
 35 28  1  0
 35 29  2  0
 36 20  1  0
 37  7  1  0
 37 24  1  0
 38 24  1  0
 39  7  2  0
 39 15  1  0
 39 22  1  0
 40  6  1  0
 41  6  1  0
 41 11  1  0
 41 22  2  0
 42 23  1  0
 42 28  2  0
M  END
$$$$
