
     RDKit          3D

 43 45  0  0  0  0  0  0  0  0999 V2000
    2.4242   -0.6952   -0.3635 C   0  0  0  0  0  0  0  0  0  0  0  0
    3.8794    1.6712   -0.4936 C   0  0  0  0  0  0  0  0  0  0  0  0
   -4.8405    1.6325    2.5674 H   0  0  0  0  0  0  0  0  0  0  0  0
    0.1099   -1.0184   -2.0777 C   0  0  0  0  0  0  0  0  0  0  0  0
    0.6191    1.0373   -2.3931 H   0  0  0  0  0  0  0  0  0  0  0  0
    3.8472    1.4476   -2.6153 H   0  0  0  0  0  0  0  0  0  0  0  0
   -1.5315   -4.2199   -1.2939 C   0  0  0  0  0  0  0  0  0  0  0  0
   -2.1153   -0.1122   -0.7660 C   0  0  0  0  0  0  0  0  0  0  0  0
    1.8666   -1.6567   -0.2705 H   0  0  0  0  0  0  0  0  0  0  0  0
   -2.6546   -2.1452   -0.4816 H   0  0  0  0  0  0  0  0  0  0  0  0
   -3.3771    0.5137    0.2655 S   0  0  0  0  0  0  0  0  0  0  0  0
   -1.8138    2.7500    4.0409 H   0  0  0  0  0  0  0  0  0  0  0  0
   -4.1826    3.0295    3.4229 H   0  0  0  0  0  0  0  0  0  0  0  0
    1.2439   -1.6370   -2.6672 O   0  0  0  0  0  0  0  0  0  0  0  0
    3.4430    1.1846    0.7400 C   0  0  0  0  0  0  0  0  0  0  0  0
   -2.5290   -4.0786   -1.7371 H   0  0  0  0  0  0  0  0  0  0  0  0
   -2.3325    1.0334    1.4885 C   0  0  0  0  0  0  0  0  0  0  0  0
   -4.3016    3.0792    1.6556 H   0  0  0  0  0  0  0  0  0  0  0  0
    4.4415    2.5907   -0.5472 H   0  0  0  0  0  0  0  0  0  0  0  0
   -2.7961    1.8843    2.4887 N   0  0  0  0  0  0  0  0  0  0  0  0
   -1.9236   -1.4550   -0.9239 C   0  0  0  0  0  0  0  0  0  0  0  0
    0.2978    1.2297    3.0835 H   0  0  0  0  0  0  0  0  0  0  0  0
    1.6274   -1.6052    1.9882 O   0  0  0  0  0  0  0  0  0  0  0  0
   -0.5776   -3.3017   -1.7849 O   0  0  0  0  0  0  0  0  0  0  0  0
    2.2138   -0.0897   -3.6703 H   0  0  0  0  0  0  0  0  0  0  0  0
    3.5496    1.0396   -1.6332 C   0  0  0  0  0  0  0  0  0  0  0  0
   -1.1766    0.7877    1.6245 N   0  0  0  0  0  0  0  0  0  0  0  0
   -1.5596   -4.1625   -0.1915 H   0  0  0  0  0  0  0  0  0  0  0  0
   -1.0338   -5.2146   -1.6310 H   0  0  0  0  0  0  0  0  0  0  0  0
    2.3688   -0.8344   -2.8692 C   0  0  0  0  0  0  0  0  0  0  0  0
    2.7967   -0.1563   -1.6157 C   0  0  0  0  0  0  0  0  0  0  0  0
    2.7038    0.0049    0.7895 C   0  0  0  0  0  0  0  0  0  0  0  0
   -1.3953    2.7619   -1.1706 Br  0  0  0  0  0  0  0  0  0  0  0  0
    3.6517    1.6816    1.6433 H   0  0  0  0  0  0  0  0  0  0  0  0
    2.1948   -0.5369    2.0079 N   0  0  0  0  0  0  0  0  0  0  0  0
   -1.6940    2.0799    3.2165 C   0  0  0  0  0  0  0  0  0  0  0  0
    2.3849    0.0804    2.9735 O   0  0  0  0  0  0  0  0  0  0  0  0
   -4.1028    2.4488    2.5298 C   0  0  0  0  0  0  0  0  0  0  0  0
   -0.0776    0.3116   -1.9576 C   0  0  0  0  0  0  0  0  0  0  0  0
   -0.6972    1.3623    2.7053 C   0  0  0  0  0  0  0  0  0  0  0  0
   -1.1846    0.8240   -1.3051 C   0  0  0  0  0  0  0  0  0  0  0  0
   -0.8706   -1.9776   -1.5798 C   0  0  0  0  0  0  0  0  0  0  0  0
    3.1038   -1.5691   -3.1921 H   0  0  0  0  0  0  0  0  0  0  0  0
  9  1  1  0
 11  8  1  0
 14  4  1  0
 15  2  1  0
 16  7  1  0
 17 11  1  0
 19  2  1  0
 20 17  1  0
 21  8  2  0
 21 10  1  0
 24  7  1  0
 26  2  2  0
 26  6  1  0
 27 17  2  0
 28  7  1  0
 29  7  1  0
 30 14  1  0
 30 25  1  0
 31  1  2  0
 31 26  1  0
 31 30  1  0
 32  1  1  0
 32 15  2  0
 34 15  1  0
 35 23  1  0
 35 32  1  0
 36 12  1  0
 36 20  1  0
 37 35  2  0
 38  3  1  0
 38 13  1  0
 38 18  1  0
 38 20  1  0
 39  4  1  0
 39  5  1  0
 40 22  1  0
 40 27  1  0
 40 36  2  0
 41  8  1  0
 41 33  1  0
 41 39  2  0
 42  4  2  0
 42 21  1  0
 42 24  1  0
 43 30  1  0
M  CHG  2  23  -1  35   1
M  END
$$$$
