
     RDKit          3D

 43 46  0  0  0  0  0  0  0  0999 V2000
   -0.1082   -0.1397   -3.9434 H   0  0  0  0  0  0  0  0  0  0  0  0
   -2.1004   -0.3929   -0.4531 C   0  0  0  0  0  0  0  0  0  0  0  0
    3.8981   -0.8649   -0.8874 C   0  0  0  0  0  0  0  0  0  0  0  0
    2.7031    1.1775   -1.3446 C   0  0  0  0  0  0  0  0  0  0  0  0
    2.5827    2.2359   -1.2219 H   0  0  0  0  0  0  0  0  0  0  0  0
    4.4366    1.0525   -0.1129 H   0  0  0  0  0  0  0  0  0  0  0  0
   -2.5424    2.8600    2.9585 C   0  0  0  0  0  0  0  0  0  0  0  0
   -1.3482   -1.2928   -2.6912 C   0  0  0  0  0  0  0  0  0  0  0  0
   -2.3740    0.8751    1.5890 C   0  0  0  0  0  0  0  0  0  0  0  0
   -0.1366   -0.3136   -1.2591 H   0  0  0  0  0  0  0  0  0  0  0  0
    1.0728   -1.6331   -3.0706 N   0  0  0  0  0  0  0  0  0  0  0  0
    3.0462   -2.6131   -1.7757 H   0  0  0  0  0  0  0  0  0  0  0  0
   -0.1901   -2.2517    0.7212 H   0  0  0  0  0  0  0  0  0  0  0  0
    1.2186   -2.5785   -3.0394 H   0  0  0  0  0  0  0  0  0  0  0  0
   -3.8348    2.5124    3.2821 C   0  0  0  0  0  0  0  0  0  0  0  0
   -4.3882    1.3233    2.7696 C   0  0  0  0  0  0  0  0  0  0  0  0
    3.0023   -1.5601   -1.6634 C   0  0  0  0  0  0  0  0  0  0  0  0
   -1.7916    1.9952    2.1196 C   0  0  0  0  0  0  0  0  0  0  0  0
    1.9629   -0.8952   -2.2997 C   0  0  0  0  0  0  0  0  0  0  0  0
    1.8527    0.4869   -2.1426 C   0  0  0  0  0  0  0  0  0  0  0  0
    0.5250    0.9299    1.6386 C   0  0  0  0  0  0  0  0  0  0  0  0
    2.3358   -0.4629    1.9528 C   0  0  0  0  0  0  0  0  0  0  0  0
    3.3992   -0.4738    2.3109 H   0  0  0  0  0  0  0  0  0  0  0  0
   -0.1470    2.4591    1.7734 S   0  0  0  0  0  0  0  0  0  0  0  0
   -1.5424    0.0811    0.7099 N   0  0  0  0  0  0  0  0  0  0  0  0
    4.6915   -1.3937   -0.3970 H   0  0  0  0  0  0  0  0  0  0  0  0
   -0.2293   -0.1554    1.1609 C   0  0  0  0  0  0  0  0  0  0  0  0
    0.4127   -1.4039    1.0901 C   0  0  0  0  0  0  0  0  0  0  0  0
   -5.4093    1.0730    3.0046 H   0  0  0  0  0  0  0  0  0  0  0  0
   -4.4174    3.1507    3.8743 H   0  0  0  0  0  0  0  0  0  0  0  0
   -2.0996    3.7028    3.3229 H   0  0  0  0  0  0  0  0  0  0  0  0
   -4.0496   -0.3160    1.5015 H   0  0  0  0  0  0  0  0  0  0  0  0
   -0.3933   -1.7510   -4.4864 H   0  0  0  0  0  0  0  0  0  0  0  0
    2.1733   -2.4749    1.5119 H   0  0  0  0  0  0  0  0  0  0  0  0
    3.7755    0.5062   -0.7062 C   0  0  0  0  0  0  0  0  0  0  0  0
   -2.3586   -1.9171   -2.8209 O   0  0  0  0  0  0  0  0  0  0  0  0
    1.6990   -1.5241    1.5355 C   0  0  0  0  0  0  0  0  0  0  0  0
   -3.2733   -0.5675   -0.6849 O   0  0  0  0  0  0  0  0  0  0  0  0
    1.0384    1.0335   -2.6248 H   0  0  0  0  0  0  0  0  0  0  0  0
   -0.1946   -1.1592   -3.6494 C   0  0  0  0  0  0  0  0  0  0  0  0
   -3.6273    0.5611    1.9381 C   0  0  0  0  0  0  0  0  0  0  0  0
   -1.1020   -0.6187   -1.4545 N   0  0  0  0  0  0  0  0  0  0  0  0
    1.8319    0.7373    1.9637 N   0  0  0  0  0  0  0  0  0  0  0  0
  5  4  1  0
 14 11  1  0
 15  7  2  0
 16 15  1  0
 17  3  2  0
 17 12  1  0
 18  7  1  0
 18  9  2  0
 19 11  1  0
 19 17  1  0
 20  4  1  0
 20 19  2  0
 23 22  1  0
 24 18  1  0
 24 21  1  0
 25  2  1  0
 25  9  1  0
 26  3  1  0
 27 21  2  0
 27 25  1  0
 28 13  1  0
 28 27  1  0
 29 16  1  0
 30 15  1  0
 31  7  1  0
 35  3  1  0
 35  4  2  0
 35  6  1  0
 36  8  2  0
 37 22  1  0
 37 28  2  0
 37 34  1  0
 38  2  2  0
 39 20  1  0
 40  1  1  0
 40  8  1  0
 40 11  1  0
 40 33  1  0
 41  9  1  0
 41 16  2  0
 41 32  1  0
 42  2  1  0
 42  8  1  0
 42 10  1  0
 43 21  1  0
 43 22  2  0
M  END
$$$$
