
     RDKit          3D

 41 42  0  0  0  0  0  0  0  0999 V2000
    0.8194   -0.3924   -3.5172 O   0  0  0  0  0  0  0  0  0  0  0  0
   -2.5597   -0.8192    1.1865 H   0  0  0  0  0  0  0  0  0  0  0  0
    2.4184   -0.3790    0.9504 C   0  0  0  0  0  0  0  0  0  0  0  0
    1.1368   -2.8923    1.3544 H   0  0  0  0  0  0  0  0  0  0  0  0
    3.4395    1.4075   -0.3029 C   0  0  0  0  0  0  0  0  0  0  0  0
   -2.3135    0.0486   -3.3663 O   0  0  0  0  0  0  0  0  0  0  0  0
    0.3502    1.6177    1.9453 N   0  0  0  0  0  0  0  0  0  0  0  0
    1.9032   -0.0669   -1.3446 C   0  0  0  0  0  0  0  0  0  0  0  0
    0.0632    2.2978    0.8758 C   0  0  0  0  0  0  0  0  0  0  0  0
   -2.1073    0.3048   -1.0943 C   0  0  0  0  0  0  0  0  0  0  0  0
   -1.7415    2.3615    2.1505 C   0  0  0  0  0  0  0  0  0  0  0  0
   -0.1099   -3.4058    0.2449 H   0  0  0  0  0  0  0  0  0  0  0  0
    3.8294    0.9999    1.7625 H   0  0  0  0  0  0  0  0  0  0  0  0
    0.3544   -2.5772    0.7261 C   0  0  0  0  0  0  0  0  0  0  0  0
   -2.3013   -0.4877   -2.1328 C   0  0  0  0  0  0  0  0  0  0  0  0
    3.2846    0.7061    0.8664 C   0  0  0  0  0  0  0  0  0  0  0  0
    2.2762   -0.9360    1.8440 H   0  0  0  0  0  0  0  0  0  0  0  0
   -2.6973    2.5561    2.5424 H   0  0  0  0  0  0  0  0  0  0  0  0
   -0.6700    1.6506    2.7626 C   0  0  0  0  0  0  0  0  0  0  0  0
   -1.3461   -0.3053   -3.7547 H   0  0  0  0  0  0  0  0  0  0  0  0
   -2.5244   -1.4918   -2.0496 H   0  0  0  0  0  0  0  0  0  0  0  0
   -2.2120   -2.0822    0.0115 H   0  0  0  0  0  0  0  0  0  0  0  0
   -1.7169    3.3655    0.3201 H   0  0  0  0  0  0  0  0  0  0  0  0
   -0.6707    1.1866    3.7014 H   0  0  0  0  0  0  0  0  0  0  0  0
   -1.2744   -0.1806   -0.2408 O   0  0  0  0  0  0  0  0  0  0  0  0
   -1.6894    1.2387   -1.4746 H   0  0  0  0  0  0  0  0  0  0  0  0
   -1.0916   -2.5092    2.3114 H   0  0  0  0  0  0  0  0  0  0  0  0
    1.7092   -0.7330   -0.1876 C   0  0  0  0  0  0  0  0  0  0  0  0
   -3.2209    0.5086   -0.7810 H   0  0  0  0  0  0  0  0  0  0  0  0
   -0.6533   -1.8056    1.5337 C   0  0  0  0  0  0  0  0  0  0  0  0
    0.8804   -1.7871   -0.3728 N   0  0  0  0  0  0  0  0  0  0  0  0
    0.4192   -1.8300   -1.6148 C   0  0  0  0  0  0  0  0  0  0  0  0
    2.7621    1.0181   -1.4299 C   0  0  0  0  0  0  0  0  0  0  0  0
    2.8668    1.5333   -2.3947 H   0  0  0  0  0  0  0  0  0  0  0  0
    1.0629   -0.6960   -2.3645 C   0  0  0  0  0  0  0  0  0  0  0  0
   -1.1820    2.7458    1.0252 N   0  0  0  0  0  0  0  0  0  0  0  0
   -0.1879   -0.9314    2.0287 H   0  0  0  0  0  0  0  0  0  0  0  0
    0.6063    2.4679    0.1246 H   0  0  0  0  0  0  0  0  0  0  0  0
    4.1384    2.2773   -0.3488 H   0  0  0  0  0  0  0  0  0  0  0  0
   -1.7600   -1.2654    0.6271 C   0  0  0  0  0  0  0  0  0  0  0  0
   -0.2903   -2.7183   -2.1240 O   0  0  0  0  0  0  0  0  0  0  0  0
  9  7  2  0
 14  4  1  0
 14 12  1  0
 15  6  1  0
 15 10  1  0
 16  3  2  0
 16  5  1  0
 16 13  1  0
 17  3  1  0
 18 11  1  0
 19  7  1  0
 19 11  2  0
 20  6  1  0
 21 15  1  0
 24 19  1  0
 25 10  1  0
 26 10  1  0
 28  3  1  0
 28  8  2  0
 29 10  1  0
 30 14  1  0
 30 27  1  0
 31 14  1  0
 31 28  1  0
 32 31  1  0
 33  5  2  0
 33  8  1  0
 34 33  1  0
 35  1  2  0
 35  8  1  0
 35 32  1  0
 36  9  1  0
 36 11  1  0
 36 23  1  0
 37 30  1  0
 38  9  1  0
 39  5  1  0
 40  2  1  0
 40 22  1  0
 40 25  1  0
 40 30  1  0
 41 32  2  0
M  END
$$$$
