
     RDKit          3D

 44 46  0  0  0  0  0  0  0  0999 V2000
    2.2067    0.4028    2.8812 H   0  0  0  0  0  0  0  0  0  0  0  0
    0.5657    1.2340   -1.5057 C   0  0  0  0  0  0  0  0  0  0  0  0
   -1.5124   -2.6881   -0.4671 C   0  0  0  0  0  0  0  0  0  0  0  0
   -2.2391    2.2941    0.0950 C   0  0  0  0  0  0  0  0  0  0  0  0
    4.1274   -1.7155    0.4672 H   0  0  0  0  0  0  0  0  0  0  0  0
   -1.2295    3.4829    1.5962 H   0  0  0  0  0  0  0  0  0  0  0  0
   -1.1125   -0.9730    1.1338 C   0  0  0  0  0  0  0  0  0  0  0  0
   -2.4786   -3.2271   -2.7966 H   0  0  0  0  0  0  0  0  0  0  0  0
    2.6774    0.0035    2.0063 C   0  0  0  0  0  0  0  0  0  0  0  0
   -3.3615    2.3040    0.2438 H   0  0  0  0  0  0  0  0  0  0  0  0
    0.0452    1.5687   -2.3862 H   0  0  0  0  0  0  0  0  0  0  0  0
    3.6886    0.3582    1.9138 H   0  0  0  0  0  0  0  0  0  0  0  0
   -1.4352   -3.7491   -0.7812 H   0  0  0  0  0  0  0  0  0  0  0  0
    2.7173   -1.5605    2.0962 C   0  0  0  0  0  0  0  0  0  0  0  0
   -2.7608    0.2390   -1.5231 H   0  0  0  0  0  0  0  0  0  0  0  0
    2.2001   -1.7355   -0.2450 N   0  0  0  0  0  0  0  0  0  0  0  0
   -1.5154    3.5813    0.5565 C   0  0  0  0  0  0  0  0  0  0  0  0
   -3.7947   -2.1457   -2.5763 H   0  0  0  0  0  0  0  0  0  0  0  0
    1.5724    2.4535    1.4787 H   0  0  0  0  0  0  0  0  0  0  0  0
    3.1552   -2.1166    0.7420 C   0  0  0  0  0  0  0  0  0  0  0  0
   -2.1610   -1.7990   -1.2623 C   0  0  0  0  0  0  0  0  0  0  0  0
   -2.2687   -0.4654   -0.8944 C   0  0  0  0  0  0  0  0  0  0  0  0
    3.2157   -3.1786    0.7791 H   0  0  0  0  0  0  0  0  0  0  0  0
    1.5495   -2.3780   -0.5105 H   0  0  0  0  0  0  0  0  0  0  0  0
   -1.7038   -0.0609    0.3204 C   0  0  0  0  0  0  0  0  0  0  0  0
   -0.5479   -2.9728    1.3759 H   0  0  0  0  0  0  0  0  0  0  0  0
    1.7209   -0.4019   -0.2746 C   0  0  0  0  0  0  0  0  0  0  0  0
   -2.4044   -1.6254   -3.3665 H   0  0  0  0  0  0  0  0  0  0  0  0
    1.0460   -0.0342   -1.4148 C   0  0  0  0  0  0  0  0  0  0  0  0
    0.8902   -0.7457   -2.2102 H   0  0  0  0  0  0  0  0  0  0  0  0
   -0.0044    3.7529   -0.4729 S   0  0  0  0  0  0  0  0  0  0  0  0
    0.7384    2.1357   -0.4557 C   0  0  0  0  0  0  0  0  0  0  0  0
   -2.7725   -2.2349   -2.6152 C   0  0  0  0  0  0  0  0  0  0  0  0
    1.7594   -1.9350    2.3562 H   0  0  0  0  0  0  0  0  0  0  0  0
    3.4607   -1.8577    2.8519 H   0  0  0  0  0  0  0  0  0  0  0  0
   -1.6945    1.1733    0.8265 O   0  0  0  0  0  0  0  0  0  0  0  0
    1.4329    1.7237    0.6969 C   0  0  0  0  0  0  0  0  0  0  0  0
   -1.0070   -2.2941    0.7310 C   0  0  0  0  0  0  0  0  0  0  0  0
   -2.1639    4.4293    0.3585 H   0  0  0  0  0  0  0  0  0  0  0  0
   -2.1082    2.2101   -0.9849 H   0  0  0  0  0  0  0  0  0  0  0  0
   -0.5020    4.0381   -1.7796 O   0  0  0  0  0  0  0  0  0  0  0  0
   -0.7381   -0.6326    2.0711 H   0  0  0  0  0  0  0  0  0  0  0  0
    0.8141    4.6933    0.1835 O   0  0  0  0  0  0  0  0  0  0  0  0
    1.9323    0.4492    0.7611 C   0  0  0  0  0  0  0  0  0  0  0  0
  9  1  1  0
 10  4  1  0
 11  2  1  0
 12  9  1  0
 13  3  1  0
 14  9  1  0
 17  4  1  0
 17  6  1  0
 20  5  1  0
 20 14  1  0
 20 16  1  0
 21  3  2  0
 22 15  1  0
 22 21  1  0
 23 20  1  0
 24 16  1  0
 25  7  1  0
 25 22  2  0
 27 16  1  0
 29  2  2  0
 29 27  1  0
 30 29  1  0
 31 17  1  0
 32  2  1  0
 32 31  1  0
 33  8  1  0
 33 18  1  0
 33 21  1  0
 33 28  1  0
 34 14  1  0
 35 14  1  0
 36  4  1  0
 36 25  1  0
 37 19  1  0
 37 32  2  0
 38  3  1  0
 38  7  2  0
 38 26  1  0
 39 17  1  0
 40  4  1  0
 41 31  2  0
 42  7  1  0
 43 31  2  0
 44  9  1  0
 44 27  2  0
 44 37  1  0
M  END
$$$$
