
     RDKit          3D

 41 43  0  0  0  0  0  0  0  0999 V2000
    1.2086    0.9194   -1.0888 H   0  0  0  0  0  0  0  0  0  0  0  0
   -0.8325    3.2622    0.7305 H   0  0  0  0  0  0  0  0  0  0  0  0
   -0.2311    2.7086    0.0856 C   0  0  0  0  0  0  0  0  0  0  0  0
    0.9832    0.6523    2.5443 H   0  0  0  0  0  0  0  0  0  0  0  0
   -2.4315   -1.3485   -1.8407 H   0  0  0  0  0  0  0  0  0  0  0  0
   -1.4926   -2.6230   -0.5966 N   0  0  0  0  0  0  0  0  0  0  0  0
   -0.3084   -3.8987   -2.1649 C   0  0  0  0  0  0  0  0  0  0  0  0
    0.5294   -1.3415    1.3117 O   0  0  0  0  0  0  0  0  0  0  0  0
   -1.2921   -2.9278   -2.8337 C   0  0  0  0  0  0  0  0  0  0  0  0
   -0.6509   -1.1569   -1.7713 H   0  0  0  0  0  0  0  0  0  0  0  0
    0.4005   -3.2613   -0.2351 H   0  0  0  0  0  0  0  0  0  0  0  0
    2.6818    2.5530    1.3618 C   0  0  0  0  0  0  0  0  0  0  0  0
    1.1191    3.3285   -0.3469 C   0  0  0  0  0  0  0  0  0  0  0  0
    2.1798    2.3698   -0.0010 N   0  0  0  0  0  0  0  0  0  0  0  0
   -0.8501    0.3294    0.5950 N   0  0  0  0  0  0  0  0  0  0  0  0
   -1.5960   -2.6807    1.4476 H   0  0  0  0  0  0  0  0  0  0  0  0
   -0.8604   -4.4858   -0.1573 H   0  0  0  0  0  0  0  0  0  0  0  0
    0.1514    1.3675    0.6980 C   0  0  0  0  0  0  0  0  0  0  0  0
    1.9647    2.6169    3.3396 H   0  0  0  0  0  0  0  0  0  0  0  0
   -0.4983   -3.6544   -0.6661 C   0  0  0  0  0  0  0  0  0  0  0  0
    1.2962    4.2540    0.0784 H   0  0  0  0  0  0  0  0  0  0  0  0
   -3.1115    1.0771   -0.0084 N   0  0  0  0  0  0  0  0  0  0  0  0
   -0.3408    1.7271    2.7025 H   0  0  0  0  0  0  0  0  0  0  0  0
    0.7133   -3.5871   -2.4522 H   0  0  0  0  0  0  0  0  0  0  0  0
   -2.6350   -1.4980    0.6762 H   0  0  0  0  0  0  0  0  0  0  0  0
    3.2298    3.4343    1.3264 H   0  0  0  0  0  0  0  0  0  0  0  0
    3.2924    1.7064    1.5750 H   0  0  0  0  0  0  0  0  0  0  0  0
   -2.0780    0.7230    0.2569 C   0  0  0  0  0  0  0  0  0  0  0  0
   -1.6671   -1.9713    0.6858 C   0  0  0  0  0  0  0  0  0  0  0  0
   -0.5185   -4.9142   -2.4253 H   0  0  0  0  0  0  0  0  0  0  0  0
   -0.5525   -0.9403    0.9100 C   0  0  0  0  0  0  0  0  0  0  0  0
   -0.8225    2.5507   -0.7987 H   0  0  0  0  0  0  0  0  0  0  0  0
    1.0152    3.6244    2.3032 H   0  0  0  0  0  0  0  0  0  0  0  0
   -1.4930   -1.9249   -1.7948 C   0  0  0  0  0  0  0  0  0  0  0  0
    1.1685    3.3657   -1.4401 H   0  0  0  0  0  0  0  0  0  0  0  0
    0.5542    1.5352    2.2077 C   0  0  0  0  0  0  0  0  0  0  0  0
   -0.9279   -2.5186   -3.7895 H   0  0  0  0  0  0  0  0  0  0  0  0
    1.9816    0.2960    0.3264 H   0  0  0  0  0  0  0  0  0  0  0  0
    1.5337    2.6634    2.3500 C   0  0  0  0  0  0  0  0  0  0  0  0
   -2.2321   -3.4455   -3.0453 H   0  0  0  0  0  0  0  0  0  0  0  0
    1.4195    1.1131   -0.0560 C   0  0  0  0  0  0  0  0  0  0  0  0
  3  2  1  0
  9  7  1  0
 13  3  1  0
 14 12  1  0
 14 13  1  0
 18  3  1  0
 18 15  1  0
 20  6  1  0
 20  7  1  0
 20 11  1  0
 20 17  1  0
 21 13  1  0
 24  7  1  0
 26 12  1  0
 27 12  1  0
 28 15  1  0
 28 22  3  0
 29  6  1  0
 29 16  1  0
 29 25  1  0
 30  7  1  0
 31  8  2  0
 31 15  1  0
 31 29  1  0
 32  3  1  0
 34  5  1  0
 34  6  1  0
 34  9  1  0
 34 10  1  0
 35 13  1  0
 36  4  1  0
 36 18  1  0
 36 23  1  0
 37  9  1  0
 39 12  1  0
 39 19  1  0
 39 33  1  0
 39 36  1  0
 40  9  1  0
 41  1  1  0
 41 14  1  0
 41 18  1  0
 41 38  1  0
M  END
$$$$
