
     RDKit          3D

 43 46  0  0  0  0  0  0  0  0999 V2000
   -0.3731    1.3267    2.2477 C   0  0  0  0  0  0  0  0  0  0  0  0
   -2.8115    0.6391   -1.5566 H   0  0  0  0  0  0  0  0  0  0  0  0
    0.1438    0.2297    1.6580 C   0  0  0  0  0  0  0  0  0  0  0  0
   -0.8364   -1.8995    0.2729 H   0  0  0  0  0  0  0  0  0  0  0  0
   -1.3541    1.2937    3.3907 C   0  0  0  0  0  0  0  0  0  0  0  0
   -1.3196   -2.7220   -3.7729 H   0  0  0  0  0  0  0  0  0  0  0  0
   -0.6869    0.7076   -1.8866 C   0  0  0  0  0  0  0  0  0  0  0  0
   -0.3397   -1.0354    2.0455 N   0  0  0  0  0  0  0  0  0  0  0  0
   -1.9945    0.0873   -1.9830 C   0  0  0  0  0  0  0  0  0  0  0  0
    3.2678   -1.0068   -3.6526 H   0  0  0  0  0  0  0  0  0  0  0  0
   -1.3225   -0.0745    4.0849 C   0  0  0  0  0  0  0  0  0  0  0  0
   -0.9058   -3.0079    1.5684 H   0  0  0  0  0  0  0  0  0  0  0  0
    1.3178   -2.5243   -4.1794 H   0  0  0  0  0  0  0  0  0  0  0  0
    0.0463   -1.2383   -3.1616 C   0  0  0  0  0  0  0  0  0  0  0  0
   -1.1772    2.0975    4.0728 H   0  0  0  0  0  0  0  0  0  0  0  0
    0.6589   -2.4800    0.9767 H   0  0  0  0  0  0  0  0  0  0  0  0
   -2.1906   -1.1376   -2.6505 C   0  0  0  0  0  0  0  0  0  0  0  0
    2.5681    1.2516   -2.0411 C   0  0  0  0  0  0  0  0  0  0  0  0
    2.3010   -0.6616   -0.4841 H   0  0  0  0  0  0  0  0  0  0  0  0
   -1.1735   -1.7894   -3.2497 C   0  0  0  0  0  0  0  0  0  0  0  0
    0.9193    2.7190    0.8129 C   0  0  0  0  0  0  0  0  0  0  0  0
   -1.4339   -1.0809    2.9997 C   0  0  0  0  0  0  0  0  0  0  0  0
    2.2675   -0.8443   -3.3572 C   0  0  0  0  0  0  0  0  0  0  0  0
    1.7126    0.2198   -2.5298 C   0  0  0  0  0  0  0  0  0  0  0  0
    1.2508   -1.6940   -3.6548 N   0  0  0  0  0  0  0  0  0  0  0  0
   -0.3424    3.4507    2.2600 H   0  0  0  0  0  0  0  0  0  0  0  0
    0.0579    2.6091    1.7982 C   0  0  0  0  0  0  0  0  0  0  0  0
    2.9116    2.5893   -0.7230 H   0  0  0  0  0  0  0  0  0  0  0  0
   -0.3471   -0.1997    4.5703 H   0  0  0  0  0  0  0  0  0  0  0  0
   -3.2106   -1.5419   -2.7110 H   0  0  0  0  0  0  0  0  0  0  0  0
    1.4741    1.5746    0.1683 C   0  0  0  0  0  0  0  0  0  0  0  0
    1.6785   -0.8750    0.1407 O   0  0  0  0  0  0  0  0  0  0  0  0
    2.3894    1.7571   -0.8109 N   0  0  0  0  0  0  0  0  0  0  0  0
   -0.5438    1.6133   -1.4089 H   0  0  0  0  0  0  0  0  0  0  0  0
    3.4412    1.6096   -2.7192 O   0  0  0  0  0  0  0  0  0  0  0  0
   -0.3726   -2.1557    1.1867 C   0  0  0  0  0  0  0  0  0  0  0  0
    1.2204    3.6194    0.4841 H   0  0  0  0  0  0  0  0  0  0  0  0
   -2.0862   -0.1116    4.7867 H   0  0  0  0  0  0  0  0  0  0  0  0
    0.3501   -0.0297   -2.4525 C   0  0  0  0  0  0  0  0  0  0  0  0
    1.1003    0.2847    0.6546 C   0  0  0  0  0  0  0  0  0  0  0  0
   -2.3880   -0.9357    2.4191 H   0  0  0  0  0  0  0  0  0  0  0  0
   -1.5230   -2.0908    3.4119 H   0  0  0  0  0  0  0  0  0  0  0  0
   -2.3445    1.4565    2.9746 H   0  0  0  0  0  0  0  0  0  0  0  0
  3  1  2  0
  5  1  1  0
  8  3  1  0
  9  2  1  0
  9  7  2  0
 11  5  1  0
 15  5  1  0
 17  9  1  0
 20  6  1  0
 20 14  1  0
 20 17  2  0
 22  8  1  0
 22 11  1  0
 23 10  1  0
 24 18  1  0
 24 23  2  0
 25 13  1  0
 25 14  1  0
 25 23  1  0
 27  1  1  0
 27 21  2  0
 27 26  1  0
 29 11  1  0
 30 17  1  0
 31 21  1  0
 32 19  1  0
 33 18  1  0
 33 28  1  0
 33 31  1  0
 34  7  1  0
 35 18  2  0
 36  4  1  0
 36  8  1  0
 36 12  1  0
 36 16  1  0
 37 21  1  0
 38 11  1  0
 39  7  1  0
 39 14  2  0
 39 24  1  0
 40  3  1  0
 40 31  2  0
 40 32  1  0
 41 22  1  0
 42 22  1  0
 43  5  1  0
M  END
$$$$
