
     RDKit          3D

 43 44  0  0  0  0  0  0  0  0999 V2000
    2.7031   -3.5047    2.0361 H   0  0  0  0  0  0  0  0  0  0  0  0
   -3.5359    1.4751    0.2765 H   0  0  0  0  0  0  0  0  0  0  0  0
   -3.7092   -0.9882   -0.5919 H   0  0  0  0  0  0  0  0  0  0  0  0
    0.6568    0.7301   -1.1462 C   0  0  0  0  0  0  0  0  0  0  0  0
   -2.3523    1.3222   -2.1630 H   0  0  0  0  0  0  0  0  0  0  0  0
    4.2847   -0.8657   -0.7945 H   0  0  0  0  0  0  0  0  0  0  0  0
    3.6368   -2.0566    0.6145 H   0  0  0  0  0  0  0  0  0  0  0  0
    1.4183   -0.8763    2.7201 H   0  0  0  0  0  0  0  0  0  0  0  0
   -0.5295    3.8431   -1.5321 O   0  0  0  0  0  0  0  0  0  0  0  0
    1.4711   -2.2606    3.7563 H   0  0  0  0  0  0  0  0  0  0  0  0
    3.0994    0.6785   -1.6536 C   0  0  0  0  0  0  0  0  0  0  0  0
    1.6984    1.8253   -2.6886 H   0  0  0  0  0  0  0  0  0  0  0  0
   -3.0772   -0.3826    1.8112 H   0  0  0  0  0  0  0  0  0  0  0  0
    2.0769   -2.6694    1.7655 C   0  0  0  0  0  0  0  0  0  0  0  0
   -0.8213    2.6784   -1.5462 C   0  0  0  0  0  0  0  0  0  0  0  0
   -2.5885   -2.3475   -0.5429 H   0  0  0  0  0  0  0  0  0  0  0  0
   -4.0274   -2.3381    0.4888 H   0  0  0  0  0  0  0  0  0  0  0  0
   -0.2982    1.7343   -0.4352 C   0  0  0  0  0  0  0  0  0  0  0  0
    1.8695    1.4747   -1.6836 C   0  0  0  0  0  0  0  0  0  0  0  0
    0.9838   -0.3925   -0.2127 C   0  0  0  0  0  0  0  0  0  0  0  0
   -2.6134    1.8501    0.6267 C   0  0  0  0  0  0  0  0  0  0  0  0
   -1.1432    1.6670   -3.2863 H   0  0  0  0  0  0  0  0  0  0  0  0
    2.0820    2.4276   -1.0533 H   0  0  0  0  0  0  0  0  0  0  0  0
   -0.1133   -1.0312    0.4323 N   0  0  0  0  0  0  0  0  0  0  0  0
    2.6916   -1.9959    0.6318 N   0  0  0  0  0  0  0  0  0  0  0  0
    2.9144   -1.4159    3.2924 H   0  0  0  0  0  0  0  0  0  0  0  0
    2.3043   -0.9748   -0.0602 C   0  0  0  0  0  0  0  0  0  0  0  0
    3.9519    1.0972   -2.1965 H   0  0  0  0  0  0  0  0  0  0  0  0
    0.1340    0.2175   -2.0188 H   0  0  0  0  0  0  0  0  0  0  0  0
    0.2345    2.2950    0.3558 H   0  0  0  0  0  0  0  0  0  0  0  0
   -1.3512   -0.2772    0.6242 C   0  0  0  0  0  0  0  0  0  0  0  0
   -2.7360    1.8740    1.6861 H   0  0  0  0  0  0  0  0  0  0  0  0
   -0.0672   -1.8524    0.8550 H   0  0  0  0  0  0  0  0  0  0  0  0
    1.9129   -1.7346    2.9391 C   0  0  0  0  0  0  0  0  0  0  0  0
    3.3441   -0.3921   -0.8989 C   0  0  0  0  0  0  0  0  0  0  0  0
   -3.2390   -1.7345    0.0643 C   0  0  0  0  0  0  0  0  0  0  0  0
   -2.0435   -1.8186    1.8422 H   0  0  0  0  0  0  0  0  0  0  0  0
   -2.4568   -1.0516    1.2272 C   0  0  0  0  0  0  0  0  0  0  0  0
   -1.7045    2.0832   -2.5431 C   0  0  0  0  0  0  0  0  0  0  0  0
    1.1784   -3.0744    1.4151 H   0  0  0  0  0  0  0  0  0  0  0  0
   -1.4194    1.0676    0.2251 C   0  0  0  0  0  0  0  0  0  0  0  0
   -2.5082    2.8679    0.3059 H   0  0  0  0  0  0  0  0  0  0  0  0
   -2.3116    2.8266   -2.9448 H   0  0  0  0  0  0  0  0  0  0  0  0
 14  1  1  0
 15  9  2  0
 18  4  1  0
 18 15  1  0
 19  4  1  0
 19 11  1  0
 19 12  1  0
 20  4  1  0
 21  2  1  0
 23 19  1  0
 24 20  1  0
 25  7  1  0
 25 14  1  0
 27 20  2  0
 27 25  1  0
 28 11  1  0
 29  4  1  0
 30 18  1  0
 31 24  1  0
 32 21  1  0
 33 24  1  0
 34  8  1  0
 34 10  1  0
 34 14  1  0
 34 26  1  0
 35  6  1  0
 35 11  2  0
 35 27  1  0
 36  3  1  0
 36 16  1  0
 36 17  1  0
 38 13  1  0
 38 31  1  0
 38 36  1  0
 38 37  1  0
 39  5  1  0
 39 15  1  0
 39 22  1  0
 40 14  1  0
 41 18  1  0
 41 21  1  0
 41 31  2  0
 42 21  1  0
 43 39  1  0
M  END
$$$$
