
     RDKit          3D

 41 43  0  0  0  0  0  0  0  0999 V2000
   -1.0188    1.9385   -2.1002 N   0  0  0  0  0  0  0  0  0  0  0  0
    0.5565    0.2151   -2.6964 C   0  0  0  0  0  0  0  0  0  0  0  0
   -2.8959    2.0872    0.8909 C   0  0  0  0  0  0  0  0  0  0  0  0
    0.0478    0.0449    4.0728 H   0  0  0  0  0  0  0  0  0  0  0  0
    0.5529    1.2100    2.8098 H   0  0  0  0  0  0  0  0  0  0  0  0
   -4.2698    2.1585    0.6932 C   0  0  0  0  0  0  0  0  0  0  0  0
   -2.1512    1.0601    0.3780 C   0  0  0  0  0  0  0  0  0  0  0  0
    3.0775   -2.2050   -3.1907 O   0  0  0  0  0  0  0  0  0  0  0  0
    0.6353   -1.8798    2.5438 H   0  0  0  0  0  0  0  0  0  0  0  0
    1.0950   -0.3924   -0.0217 C   0  0  0  0  0  0  0  0  0  0  0  0
   -6.2195    1.1955   -0.2493 F   0  0  0  0  0  0  0  0  0  0  0  0
   -0.8500    0.0151    2.6247 H   0  0  0  0  0  0  0  0  0  0  0  0
    4.8466   -1.7656    0.9758 H   0  0  0  0  0  0  0  0  0  0  0  0
   -4.8830    1.1686   -0.0291 C   0  0  0  0  0  0  0  0  0  0  0  0
    2.7423   -1.7163    0.9427 C   0  0  0  0  0  0  0  0  0  0  0  0
   -1.1061    2.9218   -1.3311 O   0  0  0  0  0  0  0  0  0  0  0  0
    0.3330    0.4751   -3.7237 H   0  0  0  0  0  0  0  0  0  0  0  0
    0.0572    0.5047   -0.3539 C   0  0  0  0  0  0  0  0  0  0  0  0
    4.0944   -0.8200    2.3199 H   0  0  0  0  0  0  0  0  0  0  0  0
   -2.2808   -0.7849   -0.7108 H   0  0  0  0  0  0  0  0  0  0  0  0
   -4.1518    0.1163   -0.5323 C   0  0  0  0  0  0  0  0  0  0  0  0
    2.6130   -1.8484   -0.5411 N   0  0  0  0  0  0  0  0  0  0  0  0
   -0.1756    0.8992   -1.7144 C   0  0  0  0  0  0  0  0  0  0  0  0
    3.2733   -2.4589   -1.1206 H   0  0  0  0  0  0  0  0  0  0  0  0
    1.5125   -0.7224   -2.3771 C   0  0  0  0  0  0  0  0  0  0  0  0
    4.0435   -1.0737    1.2594 C   0  0  0  0  0  0  0  0  0  0  0  0
   -0.6958    1.0965    0.5979 O   0  0  0  0  0  0  0  0  0  0  0  0
    2.2382   -1.3532   -3.5058 N   0  0  0  0  0  0  0  0  0  0  0  0
   -2.7982    0.0309   -0.3400 C   0  0  0  0  0  0  0  0  0  0  0  0
   -2.3665    2.8424    1.4429 H   0  0  0  0  0  0  0  0  0  0  0  0
   -4.8710    2.9604    1.0932 H   0  0  0  0  0  0  0  0  0  0  0  0
    4.1725   -0.1209    0.7108 H   0  0  0  0  0  0  0  0  0  0  0  0
    0.1336    0.1546    3.0050 C   0  0  0  0  0  0  0  0  0  0  0  0
    1.4736   -0.7393    1.1932 N   0  0  0  0  0  0  0  0  0  0  0  0
    1.0729   -0.8922    2.4468 C   0  0  0  0  0  0  0  0  0  0  0  0
    1.9615   -1.1267   -4.5957 O   0  0  0  0  0  0  0  0  0  0  0  0
   -1.4776    1.9027   -3.2564 O   0  0  0  0  0  0  0  0  0  0  0  0
   -4.6238   -0.6632   -1.0941 H   0  0  0  0  0  0  0  0  0  0  0  0
    1.8018   -1.0051   -1.0668 C   0  0  0  0  0  0  0  0  0  0  0  0
    2.5644   -2.5943    1.4489 H   0  0  0  0  0  0  0  0  0  0  0  0
    1.9363   -0.8359    3.1014 H   0  0  0  0  0  0  0  0  0  0  0  0
  6  3  2  0
  7  3  1  0
 14  6  1  0
 14 11  1  0
 16  1  1  0
 17  2  1  0
 18 10  2  0
 21 14  2  0
 22 15  1  0
 23  1  1  0
 23  2  2  0
 23 18  1  0
 24 22  1  0
 25  2  1  0
 26 13  1  0
 26 15  1  0
 26 19  1  0
 27  7  1  0
 27 18  1  0
 28  8  2  0
 28 25  1  0
 29  7  2  0
 29 20  1  0
 29 21  1  0
 30  3  1  0
 31  6  1  0
 32 26  1  0
 33  4  1  0
 33  5  1  0
 33 12  1  0
 34 10  1  0
 34 15  1  0
 35  9  1  0
 35 33  1  0
 35 34  1  0
 36 28  1  0
 37  1  2  0
 38 21  1  0
 39 10  1  0
 39 22  1  0
 39 25  2  0
 40 15  1  0
 41 35  1  0
M  CHG  4   1   1  16  -1  28   1  36  -1
M  END
$$$$
