
     RDKit          3D

 42 43  0  0  0  0  0  0  0  0999 V2000
    3.7726    1.1569   -2.2638 H   0  0  0  0  0  0  0  0  0  0  0  0
    0.4650   -2.6563   -0.1619 C   0  0  0  0  0  0  0  0  0  0  0  0
    2.2732    1.5042   -0.6999 C   0  0  0  0  0  0  0  0  0  0  0  0
   -2.2375   -1.5693   -0.2975 H   0  0  0  0  0  0  0  0  0  0  0  0
   -1.5594    0.1555    2.6221 C   0  0  0  0  0  0  0  0  0  0  0  0
    2.7188    0.3627    0.1791 C   0  0  0  0  0  0  0  0  0  0  0  0
    0.0613   -0.4706    0.9187 N   0  0  0  0  0  0  0  0  0  0  0  0
    3.8173    0.2556    0.0803 H   0  0  0  0  0  0  0  0  0  0  0  0
   -3.4174    1.1941    2.1533 H   0  0  0  0  0  0  0  0  0  0  0  0
    3.3006   -3.5980   -1.7544 H   0  0  0  0  0  0  0  0  0  0  0  0
    1.0223   -4.4972   -1.2082 H   0  0  0  0  0  0  0  0  0  0  0  0
   -1.1018    3.4265    1.0153 H   0  0  0  0  0  0  0  0  0  0  0  0
   -1.0805    2.9290   -0.7017 H   0  0  0  0  0  0  0  0  0  0  0  0
   -3.2904   -1.0655    1.0132 H   0  0  0  0  0  0  0  0  0  0  0  0
   -1.3461    2.6656    0.2634 C   0  0  0  0  0  0  0  0  0  0  0  0
   -2.0078    1.6598    0.6674 C   0  0  0  0  0  0  0  0  0  0  0  0
   -1.7316    0.5027   -1.5859 C   0  0  0  0  0  0  0  0  0  0  0  0
    2.2280    0.3241   -2.5648 H   0  0  0  0  0  0  0  0  0  0  0  0
   -1.1272   -1.8248    1.9344 H   0  0  0  0  0  0  0  0  0  0  0  0
   -2.3490   -0.8308    0.4596 C   0  0  0  0  0  0  0  0  0  0  0  0
    2.5609   -3.0079   -1.1917 C   0  0  0  0  0  0  0  0  0  0  0  0
   -0.7023    0.2849   -1.4084 H   0  0  0  0  0  0  0  0  0  0  0  0
   -1.2477   -0.8421    1.4629 C   0  0  0  0  0  0  0  0  0  0  0  0
   -2.1892   -0.3989    3.3340 H   0  0  0  0  0  0  0  0  0  0  0  0
   -3.5483    0.7338   -0.4702 H   0  0  0  0  0  0  0  0  0  0  0  0
   -2.1563    2.2322    2.7254 H   0  0  0  0  0  0  0  0  0  0  0  0
   -2.3616    1.3711    2.0874 C   0  0  0  0  0  0  0  0  0  0  0  0
    2.6385    1.2603   -2.1492 C   0  0  0  0  0  0  0  0  0  0  0  0
    2.5118    0.5847    1.2312 H   0  0  0  0  0  0  0  0  0  0  0  0
    2.3636    2.0792   -2.7469 H   0  0  0  0  0  0  0  0  0  0  0  0
   -2.4688    0.5694   -0.2593 C   0  0  0  0  0  0  0  0  0  0  0  0
    2.1135   -0.9621   -0.1388 C   0  0  0  0  0  0  0  0  0  0  0  0
    2.7403    2.4520   -0.3352 H   0  0  0  0  0  0  0  0  0  0  0  0
    2.9595   -1.7888   -0.7895 N   0  0  0  0  0  0  0  0  0  0  0  0
   -1.8486    1.3930   -2.1392 H   0  0  0  0  0  0  0  0  0  0  0  0
    0.2437    0.4358    0.9868 H   0  0  0  0  0  0  0  0  0  0  0  0
   -0.7080    0.4701    3.1200 H   0  0  0  0  0  0  0  0  0  0  0  0
    1.3260   -3.4465   -0.8796 C   0  0  0  0  0  0  0  0  0  0  0  0
   -2.1775   -0.2902   -2.1860 H   0  0  0  0  0  0  0  0  0  0  0  0
   -0.4886   -3.0191    0.0882 H   0  0  0  0  0  0  0  0  0  0  0  0
    1.1696    1.6367   -0.6294 H   0  0  0  0  0  0  0  0  0  0  0  0
    0.8594   -1.3719    0.2188 C   0  0  0  0  0  0  0  0  0  0  0  0
  6  3  1  0
  8  6  1  0
 15 12  1  0
 15 13  1  0
 16 15  2  0
 20  4  1  0
 20 14  1  0
 21 10  1  0
 22 17  1  0
 23  5  1  0
 23  7  1  0
 23 19  1  0
 23 20  1  0
 24  5  1  0
 27  5  1  0
 27  9  1  0
 27 16  1  0
 27 26  1  0
 28  1  1  0
 28  3  1  0
 28 18  1  0
 29  6  1  0
 30 28  1  0
 31 16  1  0
 31 17  1  0
 31 20  1  0
 31 25  1  0
 32  6  1  0
 33  3  1  0
 34 21  2  0
 34 32  1  0
 35 17  1  0
 36  7  1  0
 37  5  1  0
 38  2  2  0
 38 11  1  0
 38 21  1  0
 39 17  1  0
 40  2  1  0
 41  3  1  0
 42  2  1  0
 42  7  1  0
 42 32  2  0
M  END
$$$$
