
     RDKit          3D

 43 45  0  0  0  0  0  0  0  0999 V2000
    3.6330   -1.0435    1.5674 C   0  0  0  0  0  0  0  0  0  0  0  0
   -3.0527   -0.5964   -6.8474 H   0  0  0  0  0  0  0  0  0  0  0  0
   -0.4403   -1.2804   -0.3776 C   0  0  0  0  0  0  0  0  0  0  0  0
    0.1023    1.5125    1.4662 N   0  0  0  0  0  0  0  0  0  0  0  0
   -0.1245    0.9705   -1.3723 C   0  0  0  0  0  0  0  0  0  0  0  0
   -2.2957    1.1302   -1.6983 H   0  0  0  0  0  0  0  0  0  0  0  0
    1.8534   -2.0008    0.9557 H   0  0  0  0  0  0  0  0  0  0  0  0
    1.8169    0.3516    4.3589 C   0  0  0  0  0  0  0  0  0  0  0  0
   -2.9229   -0.1594   -5.8634 C   0  0  0  0  0  0  0  0  0  0  0  0
    3.7666   -0.4809    0.6545 H   0  0  0  0  0  0  0  0  0  0  0  0
   -1.5388   -0.2391   -3.1038 C   0  0  0  0  0  0  0  0  0  0  0  0
   -1.5185    0.3762   -1.6796 C   0  0  0  0  0  0  0  0  0  0  0  0
    0.5404   -0.0553   -0.4228 C   0  0  0  0  0  0  0  0  0  0  0  0
   -0.4426   -1.8409    0.5426 H   0  0  0  0  0  0  0  0  0  0  0  0
   -0.4998    3.3117    3.5679 H   0  0  0  0  0  0  0  0  0  0  0  0
    0.6760    2.3341    5.0339 C   0  0  0  0  0  0  0  0  0  0  0  0
   -0.2161    1.9067   -0.8680 H   0  0  0  0  0  0  0  0  0  0  0  0
    0.4483    3.0509    5.8290 H   0  0  0  0  0  0  0  0  0  0  0  0
    0.4724    1.1293   -2.2798 H   0  0  0  0  0  0  0  0  0  0  0  0
   -3.7382   -1.8314   -4.7811 H   0  0  0  0  0  0  0  0  0  0  0  0
   -2.0742   -0.1207    0.2891 H   0  0  0  0  0  0  0  0  0  0  0  0
    2.4680   -0.4671    4.5792 H   0  0  0  0  0  0  0  0  0  0  0  0
   -2.5596   -1.3897   -0.9069 H   0  0  0  0  0  0  0  0  0  0  0  0
    0.6647    0.4427    0.9638 C   0  0  0  0  0  0  0  0  0  0  0  0
   -0.1726   -2.0127   -1.2035 H   0  0  0  0  0  0  0  0  0  0  0  0
   -2.0520    0.4466   -5.8801 H   0  0  0  0  0  0  0  0  0  0  0  0
    0.4422    1.5960    2.8077 C   0  0  0  0  0  0  0  0  0  0  0  0
    4.2608   -1.8883    1.4445 H   0  0  0  0  0  0  0  0  0  0  0  0
   -2.0169   -1.7879   -4.9900 H   0  0  0  0  0  0  0  0  0  0  0  0
    0.1549    2.5053    3.8046 C   0  0  0  0  0  0  0  0  0  0  0  0
    1.2542    0.5215    3.0956 C   0  0  0  0  0  0  0  0  0  0  0  0
    4.0327   -0.4089    2.3743 H   0  0  0  0  0  0  0  0  0  0  0  0
    1.5235    1.2528    5.3712 C   0  0  0  0  0  0  0  0  0  0  0  0
   -2.8521   -1.2235   -4.8216 C   0  0  0  0  0  0  0  0  0  0  0  0
   -3.7651    0.5297   -5.6192 H   0  0  0  0  0  0  0  0  0  0  0  0
   -2.7468   -0.6422   -3.4592 O   0  0  0  0  0  0  0  0  0  0  0  0
   -1.7938   -0.6717   -0.6516 C   0  0  0  0  0  0  0  0  0  0  0  0
    1.5295   -0.3584   -0.8107 H   0  0  0  0  0  0  0  0  0  0  0  0
    2.1723   -1.9882    2.6975 H   0  0  0  0  0  0  0  0  0  0  0  0
    1.9148    1.1655    6.3367 H   0  0  0  0  0  0  0  0  0  0  0  0
    1.4171   -0.2331    1.9591 N   0  0  0  0  0  0  0  0  0  0  0  0
    2.2111   -1.3715    1.7652 C   0  0  0  0  0  0  0  0  0  0  0  0
   -0.5320   -0.4421   -3.8278 O   0  0  0  0  0  0  0  0  0  0  0  0
  9  2  1  0
 10  1  1  0
 12  5  1  0
 12  6  1  0
 12 11  1  0
 13  3  1  0
 13  5  1  0
 14  3  1  0
 17  5  1  0
 18 16  1  0
 19  5  1  0
 22  8  1  0
 24  4  2  0
 24 13  1  0
 25  3  1  0
 26  9  1  0
 27  4  1  0
 28  1  1  0
 30 15  1  0
 30 16  1  0
 30 27  2  0
 31  8  2  0
 31 27  1  0
 32  1  1  0
 33  8  1  0
 33 16  2  0
 34  9  1  0
 34 20  1  0
 34 29  1  0
 35  9  1  0
 36 11  1  0
 36 34  1  0
 37  3  1  0
 37 12  1  0
 37 21  1  0
 37 23  1  0
 38 13  1  0
 40 33  1  0
 41 24  1  0
 41 31  1  0
 42  1  1  0
 42  7  1  0
 42 39  1  0
 42 41  1  0
 43 11  2  0
M  END
$$$$
