
     RDKit          3D

 43 46  0  0  0  0  0  0  0  0999 V2000
   -0.6208    3.9146    0.9244 H   0  0  0  0  0  0  0  0  0  0  0  0
   -0.3340    2.8621    0.8922 C   0  0  0  0  0  0  0  0  0  0  0  0
   -0.9166    0.4767    1.3276 C   0  0  0  0  0  0  0  0  0  0  0  0
    1.4778   -5.4930    1.2736 C   0  0  0  0  0  0  0  0  0  0  0  0
   -1.1548    6.4451   -2.5527 H   0  0  0  0  0  0  0  0  0  0  0  0
   -1.5199    2.1185    2.5841 H   0  0  0  0  0  0  0  0  0  0  0  0
    0.5471   -3.8077   -0.6976 C   0  0  0  0  0  0  0  0  0  0  0  0
    1.9628   -6.8288   -0.3203 H   0  0  0  0  0  0  0  0  0  0  0  0
    1.1272   -5.3000   -2.0836 H   0  0  0  0  0  0  0  0  0  0  0  0
    1.6254    2.3173   -2.5570 H   0  0  0  0  0  0  0  0  0  0  0  0
    0.4777    0.7168   -1.5686 H   0  0  0  0  0  0  0  0  0  0  0  0
    1.0652   -5.0431   -1.0746 C   0  0  0  0  0  0  0  0  0  0  0  0
   -0.1321    2.4186   -0.5086 N   0  0  0  0  0  0  0  0  0  0  0  0
   -1.4543   -0.5331    2.2149 C   0  0  0  0  0  0  0  0  0  0  0  0
   -0.6729    4.5870   -1.5715 C   0  0  0  0  0  0  0  0  0  0  0  0
    0.5687    6.0585   -4.3175 H   0  0  0  0  0  0  0  0  0  0  0  0
    1.1916    4.1515   -3.5264 C   0  0  0  0  0  0  0  0  0  0  0  0
   -2.5394   -2.6514    3.0649 H   0  0  0  0  0  0  0  0  0  0  0  0
    1.5374   -5.8525   -0.0470 C   0  0  0  0  0  0  0  0  0  0  0  0
    0.2114   -3.1214   -1.4907 H   0  0  0  0  0  0  0  0  0  0  0  0
    1.9254    3.9102   -4.3032 H   0  0  0  0  0  0  0  0  0  0  0  0
    0.3693   -1.1430    0.1283 O   0  0  0  0  0  0  0  0  0  0  0  0
    1.8275   -6.1568    2.0571 H   0  0  0  0  0  0  0  0  0  0  0  0
   -0.0594    0.1467    0.3578 C   0  0  0  0  0  0  0  0  0  0  0  0
   -1.3546    1.9260    1.4984 C   0  0  0  0  0  0  0  0  0  0  0  0
   -0.9677   -1.8418    1.9571 C   0  0  0  0  0  0  0  0  0  0  0  0
    0.0764    3.3752   -1.5363 C   0  0  0  0  0  0  0  0  0  0  0  0
    0.5754    1.1527   -0.5891 C   0  0  0  0  0  0  0  0  0  0  0  0
   -0.5087    5.5187   -2.5519 C   0  0  0  0  0  0  0  0  0  0  0  0
    0.9467   -4.3122    1.6006 C   0  0  0  0  0  0  0  0  0  0  0  0
    0.6586    2.7862    1.3951 H   0  0  0  0  0  0  0  0  0  0  0  0
   -1.5589   -2.9154    2.8392 C   0  0  0  0  0  0  0  0  0  0  0  0
    1.0114    3.1876   -2.5508 C   0  0  0  0  0  0  0  0  0  0  0  0
    1.5963    1.3062   -0.3689 H   0  0  0  0  0  0  0  0  0  0  0  0
   -2.3493    2.1052    1.0312 H   0  0  0  0  0  0  0  0  0  0  0  0
    0.8975   -3.9295    2.6289 H   0  0  0  0  0  0  0  0  0  0  0  0
    0.4476   -3.3782    0.6294 C   0  0  0  0  0  0  0  0  0  0  0  0
   -1.0334   -3.0074    3.7289 H   0  0  0  0  0  0  0  0  0  0  0  0
   -1.5993   -3.9066    2.3576 H   0  0  0  0  0  0  0  0  0  0  0  0
   -1.4457    4.7363   -0.8360 H   0  0  0  0  0  0  0  0  0  0  0  0
   -0.1124   -2.1121    0.9750 C   0  0  0  0  0  0  0  0  0  0  0  0
    0.4347    5.3057   -3.5410 C   0  0  0  0  0  0  0  0  0  0  0  0
   -2.2248   -0.1896    3.1271 O   0  0  0  0  0  0  0  0  0  0  0  0
  2  1  1  0
 12  7  2  0
 12  9  1  0
 13  2  1  0
 14  3  1  0
 19  4  2  0
 19  8  1  0
 19 12  1  0
 20  7  1  0
 21 17  1  0
 23  4  1  0
 24  3  2  0
 24 22  1  0
 25  2  1  0
 25  3  1  0
 25  6  1  0
 26 14  1  0
 27 13  1  0
 27 15  2  0
 28 11  1  0
 28 13  1  0
 28 24  1  0
 29  5  1  0
 29 15  1  0
 30  4  1  0
 31  2  1  0
 32 18  1  0
 32 26  1  0
 33 10  1  0
 33 17  2  0
 33 27  1  0
 34 28  1  0
 35 25  1  0
 36 30  1  0
 37  7  1  0
 37 30  2  0
 38 32  1  0
 39 32  1  0
 40 15  1  0
 41 22  1  0
 41 26  2  0
 41 37  1  0
 42 16  1  0
 42 17  1  0
 42 29  2  0
 43 14  2  0
M  END
$$$$
