
     RDKit          3D

 42 45  0  0  0  0  0  0  0  0999 V2000
   -1.3370   -0.8273   -2.4499 H   0  0  0  0  0  0  0  0  0  0  0  0
   -2.6590    1.9513   -1.2116 C   0  0  0  0  0  0  0  0  0  0  0  0
    0.3734   -0.1198    1.1294 H   0  0  0  0  0  0  0  0  0  0  0  0
   -3.5960    1.4510   -3.0690 H   0  0  0  0  0  0  0  0  0  0  0  0
    0.1128    1.5406    0.3789 H   0  0  0  0  0  0  0  0  0  0  0  0
    1.5943   -1.6833    1.3513 N   0  0  0  0  0  0  0  0  0  0  0  0
   -4.8364    3.4977   -3.2307 H   0  0  0  0  0  0  0  0  0  0  0  0
    3.3418   -2.3812    0.1245 C   0  0  0  0  0  0  0  0  0  0  0  0
    4.3725   -3.7759    1.9940 C   0  0  0  0  0  0  0  0  0  0  0  0
    0.8672    0.3469   -2.9737 H   0  0  0  0  0  0  0  0  0  0  0  0
    3.9574   -2.4977   -0.6843 H   0  0  0  0  0  0  0  0  0  0  0  0
    1.2887   -2.4674    3.8449 H   0  0  0  0  0  0  0  0  0  0  0  0
   -2.0353    0.6947   -1.1990 N   0  0  0  0  0  0  0  0  0  0  0  0
    0.3174    1.7811   -2.0503 H   0  0  0  0  0  0  0  0  0  0  0  0
    0.0274    0.4257    0.2119 C   0  0  0  0  0  0  0  0  0  0  0  0
   -4.1983    3.3571   -2.3660 C   0  0  0  0  0  0  0  0  0  0  0  0
   -4.0956    4.2769   -1.4350 C   0  0  0  0  0  0  0  0  0  0  0  0
    2.1845   -1.6189    0.1395 C   0  0  0  0  0  0  0  0  0  0  0  0
    3.0570   -3.6759    3.9622 C   0  0  0  0  0  0  0  0  0  0  0  0
   -1.6083    0.7678   -3.2317 H   0  0  0  0  0  0  0  0  0  0  0  0
   -1.7710    2.7854    0.7936 O   0  0  0  0  0  0  0  0  0  0  0  0
   -2.5244    2.8895   -0.2244 C   0  0  0  0  0  0  0  0  0  0  0  0
    0.7529    0.0490   -0.9384 N   0  0  0  0  0  0  0  0  0  0  0  0
    2.2951   -1.1580   -2.1118 O   0  0  0  0  0  0  0  0  0  0  0  0
    4.7998   -4.8126    3.8169 H   0  0  0  0  0  0  0  0  0  0  0  0
   -1.4972    0.1185   -0.0317 C   0  0  0  0  0  0  0  0  0  0  0  0
   -2.0762    0.5169    0.8625 H   0  0  0  0  0  0  0  0  0  0  0  0
    0.2539    0.6623   -2.1523 C   0  0  0  0  0  0  0  0  0  0  0  0
    1.7115   -0.8837   -1.0748 C   0  0  0  0  0  0  0  0  0  0  0  0
   -3.2565    4.0969   -0.3408 C   0  0  0  0  0  0  0  0  0  0  0  0
   -1.9373    3.6936    1.3759 H   0  0  0  0  0  0  0  0  0  0  0  0
   -3.4839    2.2227   -2.2883 C   0  0  0  0  0  0  0  0  0  0  0  0
   -1.2516    0.2918   -2.3090 C   0  0  0  0  0  0  0  0  0  0  0  0
    2.3955   -2.4876    2.0639 N   0  0  0  0  0  0  0  0  0  0  0  0
    4.1560   -4.1629    3.2862 C   0  0  0  0  0  0  0  0  0  0  0  0
   -3.1731    4.8465    0.4449 H   0  0  0  0  0  0  0  0  0  0  0  0
    5.2153   -4.1212    1.4151 H   0  0  0  0  0  0  0  0  0  0  0  0
    2.9182   -3.9869    5.0159 H   0  0  0  0  0  0  0  0  0  0  0  0
   -1.6161   -0.9934   -0.1087 H   0  0  0  0  0  0  0  0  0  0  0  0
    3.4476   -2.9258    1.3689 C   0  0  0  0  0  0  0  0  0  0  0  0
   -4.6637    5.2040   -1.4863 H   0  0  0  0  0  0  0  0  0  0  0  0
    2.1770   -2.8884    3.3875 C   0  0  0  0  0  0  0  0  0  0  0  0
 11  8  1  0
 13  2  1  0
 15  3  1  0
 15  5  1  0
 16  7  1  0
 17 16  2  0
 18  6  2  0
 18  8  1  0
 22  2  1  0
 22 21  1  0
 23 15  1  0
 26 13  1  0
 26 15  1  0
 27 26  1  0
 28 10  1  0
 28 14  1  0
 28 23  1  0
 29 18  1  0
 29 23  1  0
 29 24  2  0
 30 17  1  0
 30 22  2  0
 31 21  1  0
 32  2  2  0
 32  4  1  0
 32 16  1  0
 33  1  1  0
 33 13  1  0
 33 20  1  0
 33 28  1  0
 34  6  1  0
 35  9  2  0
 35 19  1  0
 35 25  1  0
 36 30  1  0
 37  9  1  0
 38 19  1  0
 39 26  1  0
 40  8  2  0
 40  9  1  0
 40 34  1  0
 41 17  1  0
 42 12  1  0
 42 19  2  0
 42 34  1  0
M  END
$$$$
