
     RDKit          3D

 42 43  0  0  0  0  0  0  0  0999 V2000
   -0.6026   -2.7245    2.8226 O   0  0  0  0  0  0  0  0  0  0  0  0
   -0.9349   -1.4244    1.0080 N   0  0  0  0  0  0  0  0  0  0  0  0
   -2.5638   -1.0134   -1.5035 C   0  0  0  0  0  0  0  0  0  0  0  0
   -5.0280   -1.1885   -1.7227 C   0  0  0  0  0  0  0  0  0  0  0  0
    5.9849    2.8246   -1.5812 Cl  0  0  0  0  0  0  0  0  0  0  0  0
   -1.4396   -3.3981    0.6526 H   0  0  0  0  0  0  0  0  0  0  0  0
    6.7028    2.7095    0.9244 O   0  0  0  0  0  0  0  0  0  0  0  0
   -0.1247   -0.3092    3.0407 C   0  0  0  0  0  0  0  0  0  0  0  0
   -0.5299   -2.6083   -0.6483 H   0  0  0  0  0  0  0  0  0  0  0  0
    4.5461    2.1087    0.6766 C   0  0  0  0  0  0  0  0  0  0  0  0
   -0.1861    1.3982    0.8175 O   0  0  0  0  0  0  0  0  0  0  0  0
   -3.8518   -3.4336    0.4492 H   0  0  0  0  0  0  0  0  0  0  0  0
   -2.6299   -2.0373   -0.5522 C   0  0  0  0  0  0  0  0  0  0  0  0
   -1.6887    0.2792   -3.7007 H   0  0  0  0  0  0  0  0  0  0  0  0
    1.0221    0.2330    2.3737 N   0  0  0  0  0  0  0  0  0  0  0  0
    2.1885    1.6452   -0.7698 C   0  0  0  0  0  0  0  0  0  0  0  0
    5.7060    2.0978    2.5859 O   0  0  0  0  0  0  0  0  0  0  0  0
    3.3728    1.6149    2.3881 H   0  0  0  0  0  0  0  0  0  0  0  0
    0.9181    1.0606    1.2530 C   0  0  0  0  0  0  0  0  0  0  0  0
   -1.2402    0.5473   -2.7380 C   0  0  0  0  0  0  0  0  0  0  0  0
    3.3773    1.7128    1.3639 C   0  0  0  0  0  0  0  0  0  0  0  0
   -0.9745    0.4040    2.9508 H   0  0  0  0  0  0  0  0  0  0  0  0
    5.7783    2.3500    1.3821 N   0  0  0  0  0  0  0  0  0  0  0  0
    2.2038    1.4620    0.6320 C   0  0  0  0  0  0  0  0  0  0  0  0
    0.0631   -0.5661    4.0584 H   0  0  0  0  0  0  0  0  0  0  0  0
   -5.9501   -2.6897   -0.5380 H   0  0  0  0  0  0  0  0  0  0  0  0
    1.9506   -0.1570    2.5587 H   0  0  0  0  0  0  0  0  0  0  0  0
   -0.2275    0.7792   -2.8442 H   0  0  0  0  0  0  0  0  0  0  0  0
   -1.3583   -2.4553    0.0937 C   0  0  0  0  0  0  0  0  0  0  0  0
   -0.6213   -1.6506    2.2924 C   0  0  0  0  0  0  0  0  0  0  0  0
    3.3676    2.1970   -2.5141 H   0  0  0  0  0  0  0  0  0  0  0  0
   -1.2957   -0.5196   -1.7772 O   0  0  0  0  0  0  0  0  0  0  0  0
   -0.9456   -0.5112    0.6491 H   0  0  0  0  0  0  0  0  0  0  0  0
   -3.8448   -2.6143   -0.2596 C   0  0  0  0  0  0  0  0  0  0  0  0
    4.5346    2.2989   -0.7218 C   0  0  0  0  0  0  0  0  0  0  0  0
   -3.7964    0.2112   -2.8059 H   0  0  0  0  0  0  0  0  0  0  0  0
   -5.9341   -0.8331   -2.1861 H   0  0  0  0  0  0  0  0  0  0  0  0
   -1.7853    1.4371   -2.4444 H   0  0  0  0  0  0  0  0  0  0  0  0
   -3.8267   -0.5662   -2.1101 C   0  0  0  0  0  0  0  0  0  0  0  0
    1.2906    1.4534   -1.2686 H   0  0  0  0  0  0  0  0  0  0  0  0
    3.4036    2.0773   -1.4557 C   0  0  0  0  0  0  0  0  0  0  0  0
   -5.0304   -2.2017   -0.8310 C   0  0  0  0  0  0  0  0  0  0  0  0
 13  3  2  0
 15  8  1  0
 19 11  2  0
 19 15  1  0
 20 14  1  0
 21 10  2  0
 21 18  1  0
 22  8  1  0
 23  7  2  0
 23 10  1  0
 23 17  1  0
 24 16  2  0
 24 19  1  0
 24 21  1  0
 25  8  1  0
 27 15  1  0
 28 20  1  0
 29  2  1  0
 29  6  1  0
 29  9  1  0
 29 13  1  0
 30  1  2  0
 30  2  1  0
 30  8  1  0
 32  3  1  0
 32 20  1  0
 33  2  1  0
 34 12  1  0
 34 13  1  0
 35  5  1  0
 35 10  1  0
 37  4  1  0
 38 20  1  0
 39  3  1  0
 39  4  2  0
 39 36  1  0
 40 16  1  0
 41 16  1  0
 41 31  1  0
 41 35  2  0
 42  4  1  0
 42 26  1  0
 42 34  2  0
M  CHG  2  17  -1  23   1
M  END
$$$$
