
     RDKit          3D

 41 43  0  0  0  0  0  0  0  0999 V2000
    2.5152   -4.1637   -3.5519 H   0  0  0  0  0  0  0  0  0  0  0  0
   -2.7975    0.8347   -0.8508 C   0  0  0  0  0  0  0  0  0  0  0  0
   -3.3901    1.4075    2.5421 H   0  0  0  0  0  0  0  0  0  0  0  0
    1.1149    1.9199    1.4220 C   0  0  0  0  0  0  0  0  0  0  0  0
    2.1323   -3.5672   -2.7712 C   0  0  0  0  0  0  0  0  0  0  0  0
   -2.2427    0.2877    1.8016 H   0  0  0  0  0  0  0  0  0  0  0  0
    0.2207    0.2439    2.3936 H   0  0  0  0  0  0  0  0  0  0  0  0
    0.3053   -2.7578   -1.4377 C   0  0  0  0  0  0  0  0  0  0  0  0
    2.9943   -2.8016   -1.9976 C   0  0  0  0  0  0  0  0  0  0  0  0
   -2.7888    1.2198    1.6413 C   0  0  0  0  0  0  0  0  0  0  0  0
    1.1846    0.5508    2.0684 C   0  0  0  0  0  0  0  0  0  0  0  0
    0.8561    1.4678   -0.9185 O   0  0  0  0  0  0  0  0  0  0  0  0
   -2.3479    3.2705    1.2571 H   0  0  0  0  0  0  0  0  0  0  0  0
   -3.4082    0.6991   -1.7293 H   0  0  0  0  0  0  0  0  0  0  0  0
   -0.7444   -2.7406   -1.1976 H   0  0  0  0  0  0  0  0  0  0  0  0
    4.0375   -2.7878   -2.1992 H   0  0  0  0  0  0  0  0  0  0  0  0
    4.3287   -1.2735   -0.4196 H   0  0  0  0  0  0  0  0  0  0  0  0
   -4.3615    0.2320    0.5224 H   0  0  0  0  0  0  0  0  0  0  0  0
    3.0173   -0.4621    0.7730 C   0  0  0  0  0  0  0  0  0  0  0  0
    2.5447   -2.0077   -0.9525 C   0  0  0  0  0  0  0  0  0  0  0  0
    4.0703    0.3701    1.5521 S   0  0  0  0  0  0  0  0  0  0  0  0
    0.7641    2.6860    2.1043 H   0  0  0  0  0  0  0  0  0  0  0  0
   -2.2730   -0.1048   -0.6680 H   0  0  0  0  0  0  0  0  0  0  0  0
   -4.3011    1.9613    0.2462 H   0  0  0  0  0  0  0  0  0  0  0  0
    0.7758   -3.5371   -2.4748 C   0  0  0  0  0  0  0  0  0  0  0  0
    1.1635   -2.0101   -0.6478 C   0  0  0  0  0  0  0  0  0  0  0  0
   -1.0245    2.0840    0.2008 N   0  0  0  0  0  0  0  0  0  0  0  0
   -1.2038    2.4058    2.2842 H   0  0  0  0  0  0  0  0  0  0  0  0
    0.6633   -1.1869    0.4112 C   0  0  0  0  0  0  0  0  0  0  0  0
    0.1073   -4.0968   -3.0522 H   0  0  0  0  0  0  0  0  0  0  0  0
   -2.3438    2.9169   -1.1714 H   0  0  0  0  0  0  0  0  0  0  0  0
   -0.4650   -1.0593    0.7641 O   0  0  0  0  0  0  0  0  0  0  0  0
    3.4393   -1.2770   -0.1948 N   0  0  0  0  0  0  0  0  0  0  0  0
   -1.8124    2.3354    1.4110 C   0  0  0  0  0  0  0  0  0  0  0  0
   -3.6949    1.0541    0.4009 C   0  0  0  0  0  0  0  0  0  0  0  0
    2.1056    2.2345    1.1462 H   0  0  0  0  0  0  0  0  0  0  0  0
    0.2933    1.8071    0.1297 C   0  0  0  0  0  0  0  0  0  0  0  0
    1.8673    0.5472    2.9236 H   0  0  0  0  0  0  0  0  0  0  0  0
    1.6718   -0.4586    1.0561 N   0  0  0  0  0  0  0  0  0  0  0  0
   -1.8218    1.9713   -1.0119 C   0  0  0  0  0  0  0  0  0  0  0  0
   -1.1516    1.7853   -1.8050 H   0  0  0  0  0  0  0  0  0  0  0  0
  5  1  1  0
  9  5  2  0
 10  3  1  0
 10  6  1  0
 11  4  1  0
 11  7  1  0
 14  2  1  0
 15  8  1  0
 16  9  1  0
 20  9  1  0
 21 19  2  0
 22  4  1  0
 23  2  1  0
 25  5  1  0
 25  8  2  0
 26  8  1  0
 26 20  2  0
 29 26  1  0
 30 25  1  0
 32 29  2  0
 33 17  1  0
 33 19  1  0
 33 20  1  0
 34 10  1  0
 34 13  1  0
 34 27  1  0
 34 28  1  0
 35  2  1  0
 35 10  1  0
 35 18  1  0
 35 24  1  0
 36  4  1  0
 37  4  1  0
 37 12  2  0
 37 27  1  0
 38 11  1  0
 39 11  1  0
 39 19  1  0
 39 29  1  0
 40  2  1  0
 40 27  1  0
 40 31  1  0
 41 40  1  0
M  END
$$$$
