
     RDKit          3D

 42 42  0  0  0  0  0  0  0  0999 V2000
   -1.9600   -1.0801   -0.8035 H   0  0  0  0  0  0  0  0  0  0  0  0
   -1.4037    3.5574   -1.0360 H   0  0  0  0  0  0  0  0  0  0  0  0
   -1.4344   -0.9151   -3.6438 H   0  0  0  0  0  0  0  0  0  0  0  0
   -1.1975   -1.5034    3.7828 H   0  0  0  0  0  0  0  0  0  0  0  0
    0.5467   -2.1280   -3.0857 H   0  0  0  0  0  0  0  0  0  0  0  0
    0.7982    0.3330   -3.0662 H   0  0  0  0  0  0  0  0  0  0  0  0
   -1.3371   -1.3580   -2.7560 N   0  0  0  0  0  0  0  0  0  0  0  0
    1.2449   -0.9470    1.4254 C   0  0  0  0  0  0  0  0  0  0  0  0
    0.7803    1.8316   -0.8601 C   0  0  0  0  0  0  0  0  0  0  0  0
   -1.9803    1.5498   -0.3995 C   0  0  0  0  0  0  0  0  0  0  0  0
    1.7716   -2.3621    1.1012 C   0  0  0  0  0  0  0  0  0  0  0  0
    1.7669   -0.4265   -1.7411 H   0  0  0  0  0  0  0  0  0  0  0  0
    0.1443    2.0365    1.1248 H   0  0  0  0  0  0  0  0  0  0  0  0
   -1.3881   -1.2192    2.0917 H   0  0  0  0  0  0  0  0  0  0  0  0
    0.9737   -3.0510    1.0615 H   0  0  0  0  0  0  0  0  0  0  0  0
   -1.8429    3.4275    0.6546 H   0  0  0  0  0  0  0  0  0  0  0  0
    3.2125   -0.4445    1.9094 H   0  0  0  0  0  0  0  0  0  0  0  0
    0.7570   -0.2334   -2.1095 C   0  0  0  0  0  0  0  0  0  0  0  0
    2.4977   -2.7152    1.8748 H   0  0  0  0  0  0  0  0  0  0  0  0
    0.5778   -0.8952    2.8070 C   0  0  0  0  0  0  0  0  0  0  0  0
   -3.0130   -0.3457   -2.0111 H   0  0  0  0  0  0  0  0  0  0  0  0
    1.2755   -1.3146    3.5797 H   0  0  0  0  0  0  0  0  0  0  0  0
   -0.7666   -1.6157    2.8041 C   0  0  0  0  0  0  0  0  0  0  0  0
   -1.3242    1.3839   -2.4247 H   0  0  0  0  0  0  0  0  0  0  0  0
    2.3559   -0.0778    1.4547 N   0  0  0  0  0  0  0  0  0  0  0  0
    0.7861    2.4644   -1.7975 H   0  0  0  0  0  0  0  0  0  0  0  0
    0.4676    0.1351    3.1186 H   0  0  0  0  0  0  0  0  0  0  0  0
   -2.0016   -0.4826   -1.6954 C   0  0  0  0  0  0  0  0  0  0  0  0
    0.6876    3.5362    0.3892 H   0  0  0  0  0  0  0  0  0  0  0  0
   -3.0510    1.7257   -0.6978 H   0  0  0  0  0  0  0  0  0  0  0  0
    1.8000    1.6055   -0.5859 H   0  0  0  0  0  0  0  0  0  0  0  0
   -1.9805    0.9758    0.5182 H   0  0  0  0  0  0  0  0  0  0  0  0
    0.5479   -0.5922    0.6489 H   0  0  0  0  0  0  0  0  0  0  0  0
    0.0810   -1.5421   -2.3260 C   0  0  0  0  0  0  0  0  0  0  0  0
    0.0907    0.5541   -1.0882 N   0  0  0  0  0  0  0  0  0  0  0  0
   -1.2791    0.8197   -1.4928 C   0  0  0  0  0  0  0  0  0  0  0  0
    2.2236    0.8856    1.7993 H   0  0  0  0  0  0  0  0  0  0  0  0
    2.3520   -2.3011    0.2191 H   0  0  0  0  0  0  0  0  0  0  0  0
   -1.3234    2.9017   -0.1271 C   0  0  0  0  0  0  0  0  0  0  0  0
   -0.6694   -2.6886    2.6230 H   0  0  0  0  0  0  0  0  0  0  0  0
    0.0935   -2.0853   -1.4481 H   0  0  0  0  0  0  0  0  0  0  0  0
    0.1196    2.6006    0.2079 C   0  0  0  0  0  0  0  0  0  0  0  0
  7  3  1  0
 11  8  1  0
 15 11  1  0
 18  6  1  0
 18 12  1  0
 19 11  1  0
 20  8  1  0
 22 20  1  0
 23  4  1  0
 23 14  1  0
 23 20  1  0
 25  8  1  0
 25 17  1  0
 26  9  1  0
 27 20  1  0
 28  1  1  0
 28  7  1  0
 28 21  1  0
 30 10  1  0
 31  9  1  0
 32 10  1  0
 33  8  1  0
 34  5  1  0
 34  7  1  0
 34 18  1  0
 35  9  1  0
 35 18  1  0
 36 10  1  0
 36 24  1  0
 36 28  1  0
 36 35  1  0
 37 25  1  0
 38 11  1  0
 39  2  1  0
 39 10  1  0
 39 16  1  0
 40 23  1  0
 41 34  1  0
 42  9  1  0
 42 13  1  0
 42 29  1  0
 42 39  1  0
M  END
$$$$
