
     RDKit          3D

 44 45  0  0  0  0  0  0  0  0999 V2000
   -0.0279   -1.7269    1.7199 C   0  0  0  0  0  0  0  0  0  0  0  0
   -2.4634   -1.3818    2.3025 C   0  0  0  0  0  0  0  0  0  0  0  0
    2.8606    2.1002   -1.0988 C   0  0  0  0  0  0  0  0  0  0  0  0
   -0.3406   -1.8920    0.2023 C   0  0  0  0  0  0  0  0  0  0  0  0
    0.8473   -2.4100    1.9796 H   0  0  0  0  0  0  0  0  0  0  0  0
    0.5957   -1.7472   -0.3207 H   0  0  0  0  0  0  0  0  0  0  0  0
    4.6674   -0.5792   -1.9843 H   0  0  0  0  0  0  0  0  0  0  0  0
    3.1403   -0.0593    0.0566 C   0  0  0  0  0  0  0  0  0  0  0  0
   -5.1779   -2.0390    1.8354 H   0  0  0  0  0  0  0  0  0  0  0  0
    1.6940    1.8226    0.7078 H   0  0  0  0  0  0  0  0  0  0  0  0
    3.0519   -0.7316    0.8632 N   0  0  0  0  0  0  0  0  0  0  0  0
    0.6719    2.9533   -0.7369 O   0  0  0  0  0  0  0  0  0  0  0  0
    0.4778    0.2677   -1.2420 O   0  0  0  0  0  0  0  0  0  0  0  0
   -2.9519   -2.8391    0.8647 H   0  0  0  0  0  0  0  0  0  0  0  0
   -2.3109   -0.3208    2.3454 H   0  0  0  0  0  0  0  0  0  0  0  0
   -2.8102   -1.5535   -1.1393 H   0  0  0  0  0  0  0  0  0  0  0  0
    2.6793    3.9468   -2.2530 H   0  0  0  0  0  0  0  0  0  0  0  0
    5.2139    0.8610   -3.9213 H   0  0  0  0  0  0  0  0  0  0  0  0
   -3.1147   -1.7463    0.9732 C   0  0  0  0  0  0  0  0  0  0  0  0
   -1.1697   -0.8012   -0.1953 N   0  0  0  0  0  0  0  0  0  0  0  0
   -4.6160   -1.4772    0.9980 C   0  0  0  0  0  0  0  0  0  0  0  0
   -4.8755   -0.4375    1.1878 H   0  0  0  0  0  0  0  0  0  0  0  0
   -1.7260    2.0630   -1.1466 H   0  0  0  0  0  0  0  0  0  0  0  0
   -3.1888   -1.6478    3.1475 H   0  0  0  0  0  0  0  0  0  0  0  0
    3.4360    0.8349   -1.0493 C   0  0  0  0  0  0  0  0  0  0  0  0
    4.2628    0.3867   -2.0533 C   0  0  0  0  0  0  0  0  0  0  0  0
   -1.9611    1.5905    0.5636 H   0  0  0  0  0  0  0  0  0  0  0  0
   -3.0465   -0.0317   -0.3269 H   0  0  0  0  0  0  0  0  0  0  0  0
    2.2104    3.5315    0.4005 H   0  0  0  0  0  0  0  0  0  0  0  0
    4.2008    3.1104   -4.0762 H   0  0  0  0  0  0  0  0  0  0  0  0
    3.1651    2.8936   -2.1820 C   0  0  0  0  0  0  0  0  0  0  0  0
   -0.3586    2.5065    0.2972 O   0  0  0  0  0  0  0  0  0  0  0  0
   -2.5881   -1.0109   -0.2399 C   0  0  0  0  0  0  0  0  0  0  0  0
   -5.1011   -1.8325    0.0795 H   0  0  0  0  0  0  0  0  0  0  0  0
    1.8987    2.6031   -0.0489 C   0  0  0  0  0  0  0  0  0  0  0  0
    0.2527   -0.7487    1.9048 H   0  0  0  0  0  0  0  0  0  0  0  0
    4.5475    1.2165   -3.1126 C   0  0  0  0  0  0  0  0  0  0  0  0
    3.9973    2.4660   -3.2039 C   0  0  0  0  0  0  0  0  0  0  0  0
   -1.1468   -2.1236    2.6119 C   0  0  0  0  0  0  0  0  0  0  0  0
   -0.7956   -2.8310   -0.0093 H   0  0  0  0  0  0  0  0  0  0  0  0
   -1.3614   -3.1896    2.5338 H   0  0  0  0  0  0  0  0  0  0  0  0
   -0.8753   -1.9285    3.6576 H   0  0  0  0  0  0  0  0  0  0  0  0
   -1.2827    1.6319   -0.2586 C   0  0  0  0  0  0  0  0  0  0  0  0
   -0.5806    0.3007   -0.6336 C   0  0  0  0  0  0  0  0  0  0  0  0
  4  1  1  0
  5  1  1  0
  6  4  1  0
 11  8  3  0
 15  2  1  0
 19  2  1  0
 19 14  1  0
 20  4  1  0
 21  9  1  0
 21 19  1  0
 22 21  1  0
 24  2  1  0
 25  3  2  0
 25  8  1  0
 26  7  1  0
 26 25  1  0
 31  3  1  0
 31 17  1  0
 32 12  1  0
 33 16  1  0
 33 19  1  0
 33 20  1  0
 33 28  1  0
 34 21  1  0
 35  3  1  0
 35 10  1  0
 35 12  1  0
 35 29  1  0
 36  1  1  0
 37 18  1  0
 37 26  2  0
 38 30  1  0
 38 31  2  0
 38 37  1  0
 39  1  1  0
 39  2  1  0
 40  4  1  0
 41 39  1  0
 42 39  1  0
 43 23  1  0
 43 27  1  0
 43 32  1  0
 44 13  2  0
 44 20  1  0
 44 43  1  0
M  END
$$$$
