
     RDKit          3D

 41 42  0  0  0  0  0  0  0  0999 V2000
    2.2597   -1.2053   -1.9116 C   0  0  0  0  0  0  0  0  0  0  0  0
   -0.3910   -0.0489    2.6869 C   0  0  0  0  0  0  0  0  0  0  0  0
   -3.6343    3.4952   -1.6524 C   0  0  0  0  0  0  0  0  0  0  0  0
   -1.1912   -1.2904    2.4639 C   0  0  0  0  0  0  0  0  0  0  0  0
   -0.6752    0.4617    3.5362 H   0  0  0  0  0  0  0  0  0  0  0  0
   -1.1145   -1.9573    3.3144 H   0  0  0  0  0  0  0  0  0  0  0  0
    3.0006   -1.7232   -2.5003 H   0  0  0  0  0  0  0  0  0  0  0  0
   -0.1184   -1.1265    0.1458 C   0  0  0  0  0  0  0  0  0  0  0  0
    2.0672   -3.2297   -0.3849 C   0  0  0  0  0  0  0  0  0  0  0  0
    4.4355   -2.0018   -0.4543 H   0  0  0  0  0  0  0  0  0  0  0  0
    3.7314   -1.4407    0.1082 C   0  0  0  0  0  0  0  0  0  0  0  0
    0.6528   -0.3037    2.7615 H   0  0  0  0  0  0  0  0  0  0  0  0
   -2.9260    4.5890   -1.2482 C   0  0  0  0  0  0  0  0  0  0  0  0
   -3.5962    1.4076   -1.9213 H   0  0  0  0  0  0  0  0  0  0  0  0
    0.2514    1.6127    1.4855 H   0  0  0  0  0  0  0  0  0  0  0  0
   -1.7122    4.4763   -0.7220 N   0  0  0  0  0  0  0  0  0  0  0  0
   -0.1934    3.2156   -0.1574 H   0  0  0  0  0  0  0  0  0  0  0  0
   -0.7448   -1.9991    1.2177 C   0  0  0  0  0  0  0  0  0  0  0  0
    2.4599   -0.1353   -1.8976 H   0  0  0  0  0  0  0  0  0  0  0  0
    1.1611   -3.4626   -0.7867 H   0  0  0  0  0  0  0  0  0  0  0  0
   -1.1953    3.2212   -0.5575 C   0  0  0  0  0  0  0  0  0  0  0  0
    1.6115   -0.2092    0.5082 H   0  0  0  0  0  0  0  0  0  0  0  0
   -3.0533    2.2326   -1.5410 C   0  0  0  0  0  0  0  0  0  0  0  0
    2.1125   -3.5493    0.6115 H   0  0  0  0  0  0  0  0  0  0  0  0
    1.3102   -1.4280   -2.3148 H   0  0  0  0  0  0  0  0  0  0  0  0
   -0.2741   -1.6105   -0.7943 H   0  0  0  0  0  0  0  0  0  0  0  0
   -1.4358    0.1483   -1.6750 H   0  0  0  0  0  0  0  0  0  0  0  0
    2.3022   -1.7121   -0.4623 C   0  0  0  0  0  0  0  0  0  0  0  0
   -1.4559    1.4891    1.6403 H   0  0  0  0  0  0  0  0  0  0  0  0
    3.9376   -0.3933    0.0415 H   0  0  0  0  0  0  0  0  0  0  0  0
   -3.2936    5.6238   -1.3155 H   0  0  0  0  0  0  0  0  0  0  0  0
   -1.2557    0.7651   -0.7987 C   0  0  0  0  0  0  0  0  0  0  0  0
   -1.7995    2.0890   -0.9719 C   0  0  0  0  0  0  0  0  0  0  0  0
   -1.0122   -3.1510    1.0131 O   0  0  0  0  0  0  0  0  0  0  0  0
   -0.5587    0.9080    1.5048 C   0  0  0  0  0  0  0  0  0  0  0  0
   -2.2298   -1.0485    2.3575 H   0  0  0  0  0  0  0  0  0  0  0  0
    2.7784   -3.7597   -0.9404 H   0  0  0  0  0  0  0  0  0  0  0  0
    1.2870   -1.0512    0.4220 N   0  0  0  0  0  0  0  0  0  0  0  0
   -4.6076    3.6595   -2.1185 H   0  0  0  0  0  0  0  0  0  0  0  0
   -0.6457    0.2220    0.1847 C   0  0  0  0  0  0  0  0  0  0  0  0
    3.7552   -1.7795    1.1231 H   0  0  0  0  0  0  0  0  0  0  0  0
  4  2  1  0
  5  2  1  0
  6  4  1  0
  7  1  1  0
 11 10  1  0
 12  2  1  0
 13  3  2  0
 16 13  1  0
 18  4  1  0
 18  8  1  0
 19  1  1  0
 20  9  1  0
 21 16  2  0
 21 17  1  0
 23  3  1  0
 23 14  1  0
 24  9  1  0
 25  1  1  0
 26  8  1  0
 28  1  1  0
 28  9  1  0
 28 11  1  0
 30 11  1  0
 31 13  1  0
 32 27  1  0
 33 21  1  0
 33 23  2  0
 33 32  1  0
 34 18  2  0
 35  2  1  0
 35 15  1  0
 35 29  1  0
 36  4  1  0
 37  9  1  0
 38  8  1  0
 38 22  1  0
 38 28  1  0
 39  3  1  0
 40  8  1  0
 40 32  2  3
 40 35  1  0
 41 11  1  0
M  END
$$$$
