
     RDKit          3D

 41 44  0  0  0  0  0  0  0  0999 V2000
    0.3840    3.2300    1.9298 C   0  0  0  0  0  0  0  0  0  0  0  0
    0.6579   -0.1732   -2.6705 C   0  0  0  0  0  0  0  0  0  0  0  0
   -2.4148   -1.9234    0.1693 C   0  0  0  0  0  0  0  0  0  0  0  0
   -1.6616    1.4238    1.8569 H   0  0  0  0  0  0  0  0  0  0  0  0
   -1.5567    1.9544    2.7254 C   0  0  0  0  0  0  0  0  0  0  0  0
   -0.3451    2.5758   -0.3614 C   0  0  0  0  0  0  0  0  0  0  0  0
    1.9446   -0.9651   -2.6931 C   0  0  0  0  0  0  0  0  0  0  0  0
   -0.7980   -1.4382    1.7998 C   0  0  0  0  0  0  0  0  0  0  0  0
    1.9310   -1.7025   -3.5032 H   0  0  0  0  0  0  0  0  0  0  0  0
   -0.5192   -1.0980    2.8166 H   0  0  0  0  0  0  0  0  0  0  0  0
    0.7582   -3.1591   -2.1164 H   0  0  0  0  0  0  0  0  0  0  0  0
   -1.3982   -2.3288   -0.7316 C   0  0  0  0  0  0  0  0  0  0  0  0
    1.3316    1.3043    0.6889 C   0  0  0  0  0  0  0  0  0  0  0  0
    1.9657    1.1245    1.5343 H   0  0  0  0  0  0  0  0  0  0  0  0
    0.5953    0.6962   -1.4623 C   0  0  0  0  0  0  0  0  0  0  0  0
    0.2779    4.2588    1.6291 H   0  0  0  0  0  0  0  0  0  0  0  0
    1.3965    0.4345   -0.3818 C   0  0  0  0  0  0  0  0  0  0  0  0
    2.2855   -0.7338   -0.3160 C   0  0  0  0  0  0  0  0  0  0  0  0
   -0.2083   -0.7887   -2.7809 H   0  0  0  0  0  0  0  0  0  0  0  0
    0.4849    2.3713    0.7218 C   0  0  0  0  0  0  0  0  0  0  0  0
    0.2309   -1.8131    0.9514 C   0  0  0  0  0  0  0  0  0  0  0  0
   -2.0586   -1.4599    1.4250 C   0  0  0  0  0  0  0  0  0  0  0  0
   -0.6216    3.4716    3.7700 H   0  0  0  0  0  0  0  0  0  0  0  0
   -1.0483    3.3860   -0.3013 H   0  0  0  0  0  0  0  0  0  0  0  0
   -3.9089   -2.2890   -0.9969 H   0  0  0  0  0  0  0  0  0  0  0  0
   -0.1111   -2.2628   -0.3366 C   0  0  0  0  0  0  0  0  0  0  0  0
    2.1711   -1.6949   -1.4153 N   0  0  0  0  0  0  0  0  0  0  0  0
   -1.6789   -2.6924   -1.6729 H   0  0  0  0  0  0  0  0  0  0  0  0
    1.0422   -2.6736   -1.1895 C   0  0  0  0  0  0  0  0  0  0  0  0
   -3.7574   -1.9528   -0.2033 O   0  0  0  0  0  0  0  0  0  0  0  0
    3.3242   -0.4620   -0.3247 H   0  0  0  0  0  0  0  0  0  0  0  0
    1.9401   -1.6343    1.2147 S   0  0  0  0  0  0  0  0  0  0  0  0
   -0.8969    1.9642   -2.2941 H   0  0  0  0  0  0  0  0  0  0  0  0
    1.6120   -3.5006   -0.6106 H   0  0  0  0  0  0  0  0  0  0  0  0
   -0.3002    1.8116   -1.4447 C   0  0  0  0  0  0  0  0  0  0  0  0
   -2.3326    1.6390    3.4490 H   0  0  0  0  0  0  0  0  0  0  0  0
   -2.8703   -1.1308    2.1365 H   0  0  0  0  0  0  0  0  0  0  0  0
   -0.6588    2.9131    2.9135 C   0  0  0  0  0  0  0  0  0  0  0  0
    2.7741   -0.3052   -2.8174 H   0  0  0  0  0  0  0  0  0  0  0  0
    1.3484    3.1421    2.4705 H   0  0  0  0  0  0  0  0  0  0  0  0
    0.6893    0.4812   -3.5780 H   0  0  0  0  0  0  0  0  0  0  0  0
  5  4  1  0
  7  2  1  0
  9  7  1  0
 10  8  1  0
 12  3  1  0
 14 13  1  0
 15  2  1  0
 16  1  1  0
 17 13  1  0
 17 15  2  0
 18 17  1  0
 19  2  1  0
 20  1  1  0
 20  6  1  0
 20 13  2  0
 21  8  2  0
 22  3  2  0
 22  8  1  0
 24  6  1  0
 26 12  2  0
 26 21  1  0
 27  7  1  0
 27 18  1  0
 28 12  1  0
 29 11  1  0
 29 26  1  0
 29 27  1  0
 30  3  1  0
 30 25  1  0
 31 18  1  0
 32 18  1  0
 32 21  1  0
 34 29  1  0
 35  6  2  0
 35 15  1  0
 35 33  1  0
 36  5  1  0
 37 22  1  0
 38  1  1  0
 38  5  2  0
 38 23  1  0
 39  7  1  0
 40  1  1  0
 41  2  1  0
M  END
$$$$
