
     RDKit          3D

 42 44  0  0  0  0  0  0  0  0999 V2000
    3.9461    0.2483    7.3376 H   0  0  0  0  0  0  0  0  0  0  0  0
    0.3174   -0.5143    4.5495 C   0  0  0  0  0  0  0  0  0  0  0  0
   -1.8632   -0.7350   -6.6642 H   0  0  0  0  0  0  0  0  0  0  0  0
   -2.1540    1.8472   -5.0692 H   0  0  0  0  0  0  0  0  0  0  0  0
    1.1766    0.6480   -1.0063 C   0  0  0  0  0  0  0  0  0  0  0  0
   -3.0629    1.1402   -3.7236 H   0  0  0  0  0  0  0  0  0  0  0  0
   -1.6456   -2.2763   -4.2327 H   0  0  0  0  0  0  0  0  0  0  0  0
    2.5978    1.0605    2.5416 H   0  0  0  0  0  0  0  0  0  0  0  0
    2.1838    0.4633    6.0708 C   0  0  0  0  0  0  0  0  0  0  0  0
    0.2183    0.9169   -3.9242 H   0  0  0  0  0  0  0  0  0  0  0  0
   -0.1317   -0.3891    1.2195 C   0  0  0  0  0  0  0  0  0  0  0  0
   -0.4111   -0.8821    3.9108 H   0  0  0  0  0  0  0  0  0  0  0  0
   -0.7063   -0.2310   -2.3583 C   0  0  0  0  0  0  0  0  0  0  0  0
   -3.2075   -1.5590   -4.1701 H   0  0  0  0  0  0  0  0  0  0  0  0
   -0.5022    0.2383   -3.5697 C   0  0  0  0  0  0  0  0  0  0  0  0
   -0.8107   -0.9186    2.1105 O   0  0  0  0  0  0  0  0  0  0  0  0
   -3.4570    0.6431   -5.3765 H   0  0  0  0  0  0  0  0  0  0  0  0
    1.3827    0.1876    4.0159 C   0  0  0  0  0  0  0  0  0  0  0  0
   -1.4179   -0.9774   -0.0428 H   0  0  0  0  0  0  0  0  0  0  0  0
    2.3041    0.6668    4.7346 N   0  0  0  0  0  0  0  0  0  0  0  0
    1.2030   -0.1801    6.7093 N   0  0  0  0  0  0  0  0  0  0  0  0
   -2.1190   -1.3752   -3.9326 C   0  0  0  0  0  0  0  0  0  0  0  0
   -1.5824   -0.1741   -4.6005 C   0  0  0  0  0  0  0  0  0  0  0  0
    0.0166   -0.0203   -1.0933 C   0  0  0  0  0  0  0  0  0  0  0  0
    1.0594    0.2849    1.4150 C   0  0  0  0  0  0  0  0  0  0  0  0
   -1.0878   -0.4191   -5.9134 C   0  0  0  0  0  0  0  0  0  0  0  0
   -0.6060    0.4910   -6.4049 H   0  0  0  0  0  0  0  0  0  0  0  0
    2.1215    1.3203   -2.3995 Cl  0  0  0  0  0  0  0  0  0  0  0  0
   -2.6091    0.9060   -4.6669 C   0  0  0  0  0  0  0  0  0  0  0  0
   -0.5236   -1.2065    6.3100 H   0  0  0  0  0  0  0  0  0  0  0  0
    2.9448    1.4780    0.4044 O   0  0  0  0  0  0  0  0  0  0  0  0
   -0.3103   -1.1336   -5.9455 H   0  0  0  0  0  0  0  0  0  0  0  0
   -2.8173   -0.6788   -1.9822 H   0  0  0  0  0  0  0  0  0  0  0  0
    0.2899   -0.6633    5.8588 C   0  0  0  0  0  0  0  0  0  0  0  0
    3.3094    0.9957    7.0474 C   0  0  0  0  0  0  0  0  0  0  0  0
    3.8671    1.7972    6.5461 H   0  0  0  0  0  0  0  0  0  0  0  0
   -0.6106   -0.5525   -0.0385 N   0  0  0  0  0  0  0  0  0  0  0  0
   -1.9278   -1.1818   -2.4251 C   0  0  0  0  0  0  0  0  0  0  0  0
    2.9477    1.4188    7.8396 H   0  0  0  0  0  0  0  0  0  0  0  0
    1.6720    0.5083    2.6277 C   0  0  0  0  0  0  0  0  0  0  0  0
   -1.7976   -2.0640   -1.9096 H   0  0  0  0  0  0  0  0  0  0  0  0
    1.8034    0.8716    0.2003 C   0  0  0  0  0  0  0  0  0  0  0  0
 12  2  1  0
 15 10  1  0
 15 13  2  0
 16 11  2  0
 18  2  2  0
 20  9  2  0
 20 18  1  0
 21  9  1  0
 22  7  1  0
 22 14  1  0
 23 15  1  0
 23 22  1  0
 24  5  2  0
 24 13  1  0
 25 11  1  0
 26  3  1  0
 26 23  1  0
 27 26  1  0
 28  5  1  0
 29  4  1  0
 29  6  1  0
 29 17  1  0
 29 23  1  0
 32 26  1  0
 34  2  1  0
 34 21  2  0
 34 30  1  0
 35  1  1  0
 35  9  1  0
 36 35  1  0
 37 11  1  0
 37 19  1  0
 37 24  1  0
 38 13  1  0
 38 22  1  0
 38 33  1  0
 39 35  1  0
 40  8  1  0
 40 18  1  0
 40 25  2  3
 41 38  1  0
 42  5  1  0
 42 25  1  0
 42 31  2  0
M  END
$$$$
