
     RDKit          3D

 43 45  0  0  0  0  0  0  0  0999 V2000
   -1.1994   -3.5644    0.8801 H   0  0  0  0  0  0  0  0  0  0  0  0
    3.4298    1.0655   -0.3260 C   0  0  0  0  0  0  0  0  0  0  0  0
   -3.9551    0.4927    1.9018 C   0  0  0  0  0  0  0  0  0  0  0  0
   -1.1132   -1.6227    1.4708 N   0  0  0  0  0  0  0  0  0  0  0  0
   -1.4743    5.0065    0.5219 H   0  0  0  0  0  0  0  0  0  0  0  0
   -4.0158    2.5945    1.5778 H   0  0  0  0  0  0  0  0  0  0  0  0
    4.3007   -2.0019   -2.0343 H   0  0  0  0  0  0  0  0  0  0  0  0
   -0.5219   -3.4678   -2.2265 H   0  0  0  0  0  0  0  0  0  0  0  0
    1.1152    1.1017    0.4462 C   0  0  0  0  0  0  0  0  0  0  0  0
    3.4372    2.0856   -0.1702 H   0  0  0  0  0  0  0  0  0  0  0  0
   -0.8134   -2.0530   -3.2270 H   0  0  0  0  0  0  0  0  0  0  0  0
   -1.2846    0.6530    1.1841 C   0  0  0  0  0  0  0  0  0  0  0  0
   -2.9958    4.2102    0.1229 H   0  0  0  0  0  0  0  0  0  0  0  0
   -1.4568   -2.9472    1.7392 C   0  0  0  0  0  0  0  0  0  0  0  0
   -4.9845    0.4578    2.1662 H   0  0  0  0  0  0  0  0  0  0  0  0
   -3.4317    1.7017    1.5624 C   0  0  0  0  0  0  0  0  0  0  0  0
    0.8434   -1.7161    1.0110 H   0  0  0  0  0  0  0  0  0  0  0  0
   -0.4445   -2.3893   -2.2614 C   0  0  0  0  0  0  0  0  0  0  0  0
    2.7176   -0.5953   -2.0196 C   0  0  0  0  0  0  0  0  0  0  0  0
    2.2546   -3.7913   -2.2507 H   0  0  0  0  0  0  0  0  0  0  0  0
   -2.0478    1.7925    1.2049 C   0  0  0  0  0  0  0  0  0  0  0  0
    4.2216    0.7792   -2.4021 H   0  0  0  0  0  0  0  0  0  0  0  0
   -0.5403    2.9380    0.5469 H   0  0  0  0  0  0  0  0  0  0  0  0
    2.3695   -0.4387    0.6215 H   0  0  0  0  0  0  0  0  0  0  0  0
   -2.5575    4.4837    1.7857 H   0  0  0  0  0  0  0  0  0  0  0  0
    3.2643   -1.8041   -2.0306 C   0  0  0  0  0  0  0  0  0  0  0  0
    2.5830    1.4250   -2.2945 H   0  0  0  0  0  0  0  0  0  0  0  0
    2.1960   -2.7568   -2.1682 C   0  0  0  0  0  0  0  0  0  0  0  0
   -3.3091   -0.6610    1.9152 N   0  0  0  0  0  0  0  0  0  0  0  0
   -0.8465   -3.3037    2.5420 H   0  0  0  0  0  0  0  0  0  0  0  0
   -2.0585   -0.5997    1.5767 C   0  0  0  0  0  0  0  0  0  0  0  0
   -0.0049    0.2791    0.8929 C   0  0  0  0  0  0  0  0  0  0  0  0
    3.2903    0.7263   -1.8722 C   0  0  0  0  0  0  0  0  0  0  0  0
    0.9931   -2.0524   -2.1892 C   0  0  0  0  0  0  0  0  0  0  0  0
    1.3202   -0.6656   -2.0766 O   0  0  0  0  0  0  0  0  0  0  0  0
    2.3383    0.5388    0.4428 N   0  0  0  0  0  0  0  0  0  0  0  0
    4.3130    0.6176    0.0031 H   0  0  0  0  0  0  0  0  0  0  0  0
    1.0210    2.2756    0.1355 O   0  0  0  0  0  0  0  0  0  0  0  0
   -1.0274   -1.9242   -1.5072 H   0  0  0  0  0  0  0  0  0  0  0  0
   -2.1268    4.2805    0.8128 C   0  0  0  0  0  0  0  0  0  0  0  0
   -1.4561    3.0275    0.8644 N   0  0  0  0  0  0  0  0  0  0  0  0
   -2.4210   -3.0695    2.0092 H   0  0  0  0  0  0  0  0  0  0  0  0
    0.0780   -1.1083    1.1181 C   0  0  0  0  0  0  0  0  0  0  0  0
 10  2  1  0
 14  1  1  0
 14  4  1  0
 15  3  1  0
 16  3  2  0
 16  6  1  0
 18  8  1  0
 18 11  1  0
 21 12  2  0
 21 16  1  0
 26  7  1  0
 26 19  2  0
 28 20  1  0
 28 26  1  0
 29  3  1  0
 30 14  1  0
 31  4  1  0
 31 12  1  0
 31 29  2  0
 32  9  1  0
 32 12  1  0
 33  2  1  0
 33 19  1  0
 33 22  1  0
 33 27  1  0
 34 18  1  0
 34 28  2  0
 35 19  1  0
 35 34  1  0
 36  2  1  0
 36  9  1  0
 36 24  1  0
 37  2  1  0
 38  9  2  0
 39 18  1  0
 40  5  1  0
 40 13  1  0
 40 25  1  0
 41 21  1  0
 41 23  1  0
 41 40  1  0
 42 14  1  0
 43  4  1  0
 43 17  1  0
 43 32  2  0
M  END
$$$$
