
     RDKit          3D

 44 45  0  0  0  0  0  0  0  0999 V2000
    3.5436   -0.9154    0.8995 H   0  0  0  0  0  0  0  0  0  0  0  0
    3.6742    0.1747    0.7460 C   0  0  0  0  0  0  0  0  0  0  0  0
   -0.4195    2.0327   -2.7992 H   0  0  0  0  0  0  0  0  0  0  0  0
   -1.0282    2.8130    1.3399 O   0  0  0  0  0  0  0  0  0  0  0  0
   -2.0889   -2.5006    1.2290 C   0  0  0  0  0  0  0  0  0  0  0  0
   -2.1807   -0.5425    2.9137 H   0  0  0  0  0  0  0  0  0  0  0  0
    0.5610    2.3705   -2.6726 C   0  0  0  0  0  0  0  0  0  0  0  0
    0.3469   -4.4050    0.2767 O   0  0  0  0  0  0  0  0  0  0  0  0
   -2.4761    1.3886    1.6840 H   0  0  0  0  0  0  0  0  0  0  0  0
    4.6241    0.3548    0.2161 H   0  0  0  0  0  0  0  0  0  0  0  0
    0.7680   -2.0658   -3.2702 H   0  0  0  0  0  0  0  0  0  0  0  0
   -0.3568    1.1444    2.9934 H   0  0  0  0  0  0  0  0  0  0  0  0
    1.7317   -2.6829   -1.2011 S   0  0  0  0  0  0  0  0  0  0  0  0
   -1.6506    3.2575   -0.5937 H   0  0  0  0  0  0  0  0  0  0  0  0
    1.2493    0.6888    0.4107 N   0  0  0  0  0  0  0  0  0  0  0  0
   -0.5376    0.5323    2.0717 C   0  0  0  0  0  0  0  0  0  0  0  0
   -1.4746   -1.3722    1.2031 O   0  0  0  0  0  0  0  0  0  0  0  0
    3.3599    1.5842   -1.8533 H   0  0  0  0  0  0  0  0  0  0  0  0
    0.6501   -1.6574   -2.2394 C   0  0  0  0  0  0  0  0  0  0  0  0
    1.1560    1.6948   -1.4983 C   0  0  0  0  0  0  0  0  0  0  0  0
   -0.8151   -2.8103   -0.8183 N   0  0  0  0  0  0  0  0  0  0  0  0
    0.5373    3.4431   -2.5535 H   0  0  0  0  0  0  0  0  0  0  0  0
   -1.5974    0.9855    0.2786 H   0  0  0  0  0  0  0  0  0  0  0  0
    1.4674   -0.6588    2.1172 O   0  0  0  0  0  0  0  0  0  0  0  0
   -1.4864    4.5975    0.5831 H   0  0  0  0  0  0  0  0  0  0  0  0
   -2.1232   -4.1943   -0.0228 H   0  0  0  0  0  0  0  0  0  0  0  0
    0.2664   -3.4687   -0.4907 C   0  0  0  0  0  0  0  0  0  0  0  0
   -2.8045   -2.7625   -0.7105 H   0  0  0  0  0  0  0  0  0  0  0  0
    2.5555    0.7280   -0.0167 C   0  0  0  0  0  0  0  0  0  0  0  0
    1.1358    2.1564   -3.5746 H   0  0  0  0  0  0  0  0  0  0  0  0
    2.5209    1.3659   -1.2220 C   0  0  0  0  0  0  0  0  0  0  0  0
    0.7916    0.0942    1.5305 C   0  0  0  0  0  0  0  0  0  0  0  0
   -0.6607   -1.4024    2.9785 H   0  0  0  0  0  0  0  0  0  0  0  0
   -0.6856   -1.8089   -1.7043 C   0  0  0  0  0  0  0  0  0  0  0  0
    1.1014   -0.6867   -2.3034 H   0  0  0  0  0  0  0  0  0  0  0  0
   -1.4842    1.4282    1.2956 C   0  0  0  0  0  0  0  0  0  0  0  0
   -1.6062   -1.0819   -2.0340 O   0  0  0  0  0  0  0  0  0  0  0  0
   -2.0289   -3.0827   -0.1075 C   0  0  0  0  0  0  0  0  0  0  0  0
   -1.2591   -0.7151    2.3943 C   0  0  0  0  0  0  0  0  0  0  0  0
   -1.8586    3.5604    0.4867 C   0  0  0  0  0  0  0  0  0  0  0  0
   -2.7051   -2.9535    2.1024 O   0  0  0  0  0  0  0  0  0  0  0  0
   -2.9238    3.5239    0.7134 H   0  0  0  0  0  0  0  0  0  0  0  0
    0.4419    1.2561   -0.4763 N   0  0  0  0  0  0  0  0  0  0  0  0
    3.7686    0.5922    1.6983 H   0  0  0  0  0  0  0  0  0  0  0  0
  2  1  1  0
  7  3  1  0
 10  2  1  0
 16 12  1  0
 17  5  1  0
 19 11  1  0
 19 13  1  0
 20  7  1  0
 22  7  1  0
 27  8  2  0
 27 13  1  0
 27 21  1  0
 29  2  1  0
 29 15  1  0
 30  7  1  0
 31 18  1  0
 31 20  1  0
 31 29  2  0
 32 15  1  0
 32 16  1  0
 32 24  2  0
 34 19  1  0
 34 21  1  0
 35 19  1  0
 36  4  1  0
 36  9  1  0
 36 16  1  0
 36 23  1  0
 37 34  2  0
 38  5  1  0
 38 21  1  0
 38 26  1  0
 38 28  1  0
 39  6  1  0
 39 16  1  0
 39 17  1  0
 39 33  1  0
 40  4  1  0
 40 14  1  0
 40 25  1  0
 41  5  2  0
 42 40  1  0
 43 15  1  0
 43 20  2  0
 44  2  1  0
M  END
$$$$
