
     RDKit          3D

 44 44  0  0  0  0  0  0  0  0999 V2000
   -2.0021   -2.8391   -0.2852 H   0  0  0  0  0  0  0  0  0  0  0  0
   -3.6650   -2.3504    1.3366 H   0  0  0  0  0  0  0  0  0  0  0  0
   -0.8642   -1.4718    0.7389 N   0  0  0  0  0  0  0  0  0  0  0  0
    1.6216   -0.2421    1.5307 H   0  0  0  0  0  0  0  0  0  0  0  0
   -2.7481   -0.3725    2.2627 H   0  0  0  0  0  0  0  0  0  0  0  0
    2.6364    2.1945   -2.0975 H   0  0  0  0  0  0  0  0  0  0  0  0
    2.3723    0.0708   -2.2283 C   0  0  0  0  0  0  0  0  0  0  0  0
   -1.3220   -0.7714    0.2427 H   0  0  0  0  0  0  0  0  0  0  0  0
   -0.9839   -3.5175    0.9774 H   0  0  0  0  0  0  0  0  0  0  0  0
   -0.5885    0.8919    1.9025 H   0  0  0  0  0  0  0  0  0  0  0  0
   -1.9023    1.4847   -1.4138 C   0  0  0  0  0  0  0  0  0  0  0  0
    1.4009   -1.2270   -0.6421 O   0  0  0  0  0  0  0  0  0  0  0  0
    1.5220    2.1428    0.0344 H   0  0  0  0  0  0  0  0  0  0  0  0
    4.0961    1.3752   -2.7525 H   0  0  0  0  0  0  0  0  0  0  0  0
    3.6764    1.3194   -0.9716 H   0  0  0  0  0  0  0  0  0  0  0  0
    1.7548    0.2353   -3.6541 C   0  0  0  0  0  0  0  0  0  0  0  0
    0.0587   -1.5368    0.2993 H   0  0  0  0  0  0  0  0  0  0  0  0
   -0.4568    2.8571   -0.2016 C   0  0  0  0  0  0  0  0  0  0  0  0
    1.3863   -0.2293   -1.2223 C   0  0  0  0  0  0  0  0  0  0  0  0
   -2.4125   -1.4151    3.6260 H   0  0  0  0  0  0  0  0  0  0  0  0
    1.7099   -0.6244    3.1902 H   0  0  0  0  0  0  0  0  0  0  0  0
   -2.2373   -1.2929    2.5728 C   0  0  0  0  0  0  0  0  0  0  0  0
    1.1585   -0.6753   -3.9015 H   0  0  0  0  0  0  0  0  0  0  0  0
    3.2434    1.3512   -1.9856 C   0  0  0  0  0  0  0  0  0  0  0  0
   -1.0789   -0.2904   -2.2327 H   0  0  0  0  0  0  0  0  0  0  0  0
   -0.2509   -1.9923    2.7617 H   0  0  0  0  0  0  0  0  0  0  0  0
    1.7133    1.0260    2.6991 H   0  0  0  0  0  0  0  0  0  0  0  0
    1.2943    0.0736    2.4639 C   0  0  0  0  0  0  0  0  0  0  0  0
   -0.2491    3.7884    0.3384 H   0  0  0  0  0  0  0  0  0  0  0  0
    2.5792    0.3016   -4.4332 H   0  0  0  0  0  0  0  0  0  0  0  0
   -1.6810    2.6036   -0.7297 C   0  0  0  0  0  0  0  0  0  0  0  0
   -2.8237   -3.3301    2.4032 H   0  0  0  0  0  0  0  0  0  0  0  0
   -2.4925    3.3638   -0.6150 H   0  0  0  0  0  0  0  0  0  0  0  0
   -1.6550   -2.6638    0.7380 C   0  0  0  0  0  0  0  0  0  0  0  0
   -0.8986    0.5759   -1.6223 C   0  0  0  0  0  0  0  0  0  0  0  0
   -0.4509    0.3991    3.6268 H   0  0  0  0  0  0  0  0  0  0  0  0
   -2.8890    1.3152   -1.8930 H   0  0  0  0  0  0  0  0  0  0  0  0
    0.3346    0.8015   -1.0671 C   0  0  0  0  0  0  0  0  0  0  0  0
    0.5682    1.9657   -0.3773 C   0  0  0  0  0  0  0  0  0  0  0  0
    1.1119    1.0836   -3.6955 H   0  0  0  0  0  0  0  0  0  0  0  0
   -2.7012   -2.5004    1.7617 C   0  0  0  0  0  0  0  0  0  0  0  0
   -0.1859    0.1147    2.5499 C   0  0  0  0  0  0  0  0  0  0  0  0
    3.1093   -0.8276   -2.2583 H   0  0  0  0  0  0  0  0  0  0  0  0
   -0.8085   -1.1652    2.2230 C   0  0  0  0  0  0  0  0  0  0  0  0
  8  3  1  0
 16  7  1  0
 17  3  1  0
 19  7  1  0
 19 12  2  0
 22  5  1  0
 22 20  1  0
 23 16  1  0
 24  6  1  0
 24  7  1  0
 24 14  1  0
 24 15  1  0
 28  4  1  0
 28 21  1  0
 28 27  1  0
 29 18  1  0
 30 16  1  0
 31 11  2  0
 31 18  1  0
 33 31  1  0
 34  1  1  0
 34  3  1  0
 34  9  1  0
 35 11  1  0
 35 25  1  0
 37 11  1  0
 38 19  1  0
 38 35  2  0
 39 13  1  0
 39 18  2  0
 39 38  1  0
 40 16  1  0
 41  2  1  0
 41 22  1  0
 41 32  1  0
 41 34  1  0
 42 10  1  0
 42 28  1  0
 42 36  1  0
 43  7  1  0
 44  3  1  0
 44 22  1  0
 44 26  1  0
 44 42  1  0
M  CHG  1   3   1
M  END
$$$$
