
     RDKit          3D

 41 43  0  0  0  0  0  0  0  0999 V2000
    3.3154    2.4255    0.0752 H   0  0  0  0  0  0  0  0  0  0  0  0
   -1.1046   -3.8146    2.4378 O   0  0  0  0  0  0  0  0  0  0  0  0
    0.2406   -0.4276    2.3738 S   0  0  0  0  0  0  0  0  0  0  0  0
   -0.7012   -1.1275   -2.3005 H   0  0  0  0  0  0  0  0  0  0  0  0
   -1.0719   -2.7058    2.0517 C   0  0  0  0  0  0  0  0  0  0  0  0
    0.0072    3.0916   -0.8352 C   0  0  0  0  0  0  0  0  0  0  0  0
    0.6616   -2.5875    2.9030 H   0  0  0  0  0  0  0  0  0  0  0  0
   -4.1627   -2.3564    1.6870 H   0  0  0  0  0  0  0  0  0  0  0  0
    1.2702    2.7124   -2.8720 C   0  0  0  0  0  0  0  0  0  0  0  0
    1.3215   -0.1446    1.0814 C   0  0  0  0  0  0  0  0  0  0  0  0
    2.8289    1.4454    0.0875 C   0  0  0  0  0  0  0  0  0  0  0  0
   -2.1391   -2.2242    1.3668 N   0  0  0  0  0  0  0  0  0  0  0  0
   -3.5631   -0.4147    0.7084 O   0  0  0  0  0  0  0  0  0  0  0  0
   -0.7450   -0.2489   -1.7316 C   0  0  0  0  0  0  0  0  0  0  0  0
    1.7468    1.8037    1.9083 H   0  0  0  0  0  0  0  0  0  0  0  0
    0.9119   -0.1824    3.6856 O   0  0  0  0  0  0  0  0  0  0  0  0
   -0.0749    0.9725   -1.9721 C   0  0  0  0  0  0  0  0  0  0  0  0
    0.8685    3.5314   -1.8177 C   0  0  0  0  0  0  0  0  0  0  0  0
   -0.0252   -2.0685    2.3151 N   0  0  0  0  0  0  0  0  0  0  0  0
   -0.3034    3.8267   -0.0251 H   0  0  0  0  0  0  0  0  0  0  0  0
   -3.3730   -3.6696    2.3147 H   0  0  0  0  0  0  0  0  0  0  0  0
   -3.4263   -3.0330    1.5243 C   0  0  0  0  0  0  0  0  0  0  0  0
   -1.4678   -0.1219   -0.5355 C   0  0  0  0  0  0  0  0  0  0  0  0
   -0.9927    0.2195    2.2959 O   0  0  0  0  0  0  0  0  0  0  0  0
    1.9320    1.1362    1.0722 C   0  0  0  0  0  0  0  0  0  0  0  0
    1.1574   -2.0476    0.1493 H   0  0  0  0  0  0  0  0  0  0  0  0
   -0.4505    1.8816   -0.9131 C   0  0  0  0  0  0  0  0  0  0  0  0
    3.0703    0.5338   -0.8964 C   0  0  0  0  0  0  0  0  0  0  0  0
    1.6149   -1.0492    0.1092 C   0  0  0  0  0  0  0  0  0  0  0  0
    2.4975   -0.7092   -0.8767 C   0  0  0  0  0  0  0  0  0  0  0  0
    1.0910    0.7704   -3.7825 H   0  0  0  0  0  0  0  0  0  0  0  0
    1.9922    3.0993   -3.6413 H   0  0  0  0  0  0  0  0  0  0  0  0
    2.7538   -1.4333   -1.6479 H   0  0  0  0  0  0  0  0  0  0  0  0
   -2.8216   -2.0833   -0.9044 O   0  0  0  0  0  0  0  0  0  0  0  0
   -1.8104    1.5211    0.7684 H   0  0  0  0  0  0  0  0  0  0  0  0
    0.7745    1.4121   -2.9189 C   0  0  0  0  0  0  0  0  0  0  0  0
   -1.3553    1.2355   -0.0956 N   0  0  0  0  0  0  0  0  0  0  0  0
   -2.4915   -1.1234    0.1834 S   0  0  0  0  0  0  0  0  0  0  0  0
    4.2227    0.9703   -2.2030 Cl  0  0  0  0  0  0  0  0  0  0  0  0
    1.2748    4.5604   -1.7896 H   0  0  0  0  0  0  0  0  0  0  0  0
   -3.4737   -3.5763    0.6603 H   0  0  0  0  0  0  0  0  0  0  0  0
  5  2  2  0
 10  3  1  0
 11  1  1  0
 12  5  1  0
 14  4  1  0
 16  3  2  0
 17 14  1  0
 18  6  2  0
 18  9  1  0
 19  3  1  0
 19  5  1  0
 19  7  1  0
 20  6  1  0
 22  8  1  0
 22 12  1  0
 22 21  1  0
 23 14  2  0
 24  3  2  0
 25 10  1  0
 25 11  2  0
 25 15  1  0
 27  6  1  0
 27 17  2  0
 28 11  1  0
 29 10  2  0
 29 26  1  0
 30 28  2  0
 30 29  1  0
 32  9  1  0
 33 30  1  0
 36  9  2  0
 36 17  1  0
 36 31  1  0
 37 23  1  0
 37 27  1  0
 37 35  1  0
 38 12  1  0
 38 13  2  0
 38 23  1  0
 38 34  2  0
 39 28  1  0
 40 18  1  0
 41 22  1  0
M  END
$$$$
